
  EPA STORM WATER MANAGEMENT MODEL - VERSION 5.1 (Build 5.3.0.dev0)
  --------------------------------------------------------------

  
  *********************************************************
  NOTE: The summary statistics displayed in this report are
  based on results found at every computational time step,  
  not just on results from each reporting time step.
  *********************************************************
  
  ****************
  Analysis Options
  ****************
  Flow Units ............... LPS
  Process Models:
    Rainfall/Runoff ........ YES
    RDII ................... NO
    Snowmelt ............... NO
    Groundwater ............ NO
    Flow Routing ........... YES
    Ponding Allowed ........ YES
    Water Quality .......... NO
  Infiltration Method ...... HORTON
  Flow Routing Method ...... DYNWAVE
  Surcharge Method ......... EXTRAN
  Starting Date ............ 12/15/2017 00:00:00
  Ending Date .............. 12/15/2017 06:00:00
  Antecedent Dry Days ...... 0.0
  Report Time Step ......... 00:01:00
  Wet Time Step ............ 00:01:00
  Dry Time Step ............ 06:00:00
  Routing Time Step ........ 30.00 sec
  Variable Time Step ....... YES
  Maximum Trials ........... 8
  Number of Threads ........ 1
  Head Tolerance ........... 0.001500 m
  
  
  **************************        Volume         Depth
  Runoff Quantity Continuity     hectare-m            mm
  **************************     ---------       -------
  Total Precipitation ......        11.436        23.286
  Evaporation Loss .........         0.000         0.000
  Infiltration Loss ........         1.331         2.710
  Surface Runoff ...........         8.976        18.277
  Final Storage ............         1.130         2.300
  Continuity Error (%) .....        -0.011
  
  
  **************************        Volume        Volume
  Flow Routing Continuity        hectare-m      10^6 ltr
  **************************     ---------     ---------
  Dry Weather Inflow .......         0.000         0.000
  Wet Weather Inflow .......         8.970        89.700
  Groundwater Inflow .......         0.000         0.000
  RDII Inflow ..............         0.000         0.000
  External Inflow ..........         0.000         0.000
  External Outflow .........         8.945        89.455
  Flooding Loss ............         0.000         0.000
  Evaporation Loss .........         0.000         0.000
  Exfiltration Loss ........         0.000         0.000
  Initial Stored Volume ....         0.000         0.000
  Final Stored Volume ......         0.025         0.253
  Continuity Error (%) .....        -0.008
  
  
  *************************
  Highest Continuity Errors
  *************************
  Node 284 (-40.52%)
  Node 74 (-11.40%)
  Node 194 (3.75%)
  Node 244 (-3.03%)
  Node 289 (2.86%)
  
  
  ***************************
  Time-Step Critical Elements
  ***************************
  Link 104 (30.17%)
  Link 296 (23.49%)
  Link 32 (16.86%)
  Link 62 (4.18%)
  Link 330 (3.49%)
  
  
  ********************************
  Highest Flow Instability Indexes
  ********************************
  Link 443 (28)
  Link 30 (24)
  Link 62 (20)
  Link 47 (19)
  Link 239 (19)
  
  
  *************************
  Routing Time Step Summary
  *************************
  Minimum Time Step           :     0.50 sec
  Average Time Step           :    10.67 sec
  Maximum Time Step           :    30.00 sec
  Percent in Steady State     :     0.59
  Average Iterations per Step :     5.55
  Percent Not Converging      :    53.98
  
  
  ***************************
  Subcatchment Runoff Summary
  ***************************
  
  ------------------------------------------------------------------------------------------------------------------------------
                            Total      Total      Total      Total     Imperv       Perv      Total       Total     Peak  Runoff
                           Precip      Runon       Evap      Infil     Runoff     Runoff     Runoff      Runoff   Runoff   Coeff
  Subcatchment                 mm         mm         mm         mm         mm         mm         mm    10^6 ltr      LPS
  ------------------------------------------------------------------------------------------------------------------------------
  532                       23.29       0.00       0.00       2.46      17.57       1.12      18.69        0.39   158.34   0.803
  533                       23.29       0.00       0.00       2.46      17.57       1.12      18.69        0.27   111.14   0.803
  534                       23.29       0.00       0.00       2.46      17.57       1.12      18.69        0.31   124.84   0.803
  535                       23.29       0.00       0.00       2.46      17.57       1.12      18.69        0.37   152.25   0.803
  536                       23.29       0.00       0.00       2.46      17.57       1.12      18.69        0.35   143.88   0.803
  537                       23.29       0.00       0.00       2.46      17.57       1.12      18.69        0.34   140.07   0.803
  538                       23.29       0.00       0.00       2.46      17.57       1.12      18.69        0.33   135.50   0.803
  539                       23.29       0.00       0.00       2.46      17.57       1.12      18.69        0.32   131.70   0.803
  540                       23.29       0.00       0.00       2.46      17.57       1.12      18.69        0.60   243.60   0.803
  541                       23.29       0.00       0.00       2.46      17.57       1.12      18.69        0.58   235.23   0.803
  542                       23.29       0.00       0.00       2.46      17.57       1.12      18.69        0.28   115.71   0.803
  543                       23.29       0.00       0.00       2.46      17.57       1.12      18.69        0.47   192.60   0.803
  544                       23.29       0.00       0.00       2.46      17.57       1.12      18.69        1.08   441.52   0.803
  545                       23.29       0.00       0.00       2.46      17.57       1.12      18.69        0.44   178.89   0.803
  546                       23.29       0.00       0.00       2.46      17.57       1.12      18.69        0.43   175.85   0.803
  547                       23.29       0.00       0.00       2.46      17.57       1.12      18.69        0.38   154.53   0.803
  548                       23.29       0.00       0.00       2.46      17.57       1.12      18.69        0.31   124.84   0.803
  549                       23.29       0.00       0.00       2.46      17.57       1.12      18.69        0.43   175.85   0.803
  550                       23.29       0.00       0.00       2.46      17.57       1.12      18.69        0.44   178.89   0.803
  551                       23.29       0.00       0.00       2.46      17.57       1.12      18.69        0.21    86.78   0.803
  552                       23.29       0.00       0.00       2.46      17.57       1.12      18.69        0.22    89.83   0.803
  553                       23.29       0.00       0.00       2.46      17.57       1.12      18.69        0.21    87.54   0.803
  554                       23.29       0.00       0.00       2.46      17.57       1.12      18.69        0.21    87.54   0.803
  555                       23.29       0.00       0.00       2.46      17.57       1.12      18.69        0.21    87.54   0.803
  556                       23.29       0.00       0.00       2.46      17.57       1.12      18.69        0.21    87.54   0.803
  557                       23.29       0.00       0.00       2.46      17.57       1.12      18.69        0.21    87.54   0.803
  558                       23.29       0.00       0.00       2.46      17.57       1.12      18.69        0.43   173.56   0.803
  559                       23.29       0.00       0.00       2.46      17.57       1.12      18.69        0.22    91.35   0.803
  560                       23.29       0.00       0.00       2.46      17.57       1.12      18.69        0.41   165.95   0.803
  561                       23.29       0.00       0.00       2.46      17.57       1.12      18.69        0.43   175.85   0.803
  562                       23.29       0.00       0.00       2.46      17.57       1.12      18.69        0.37   150.73   0.803
  563                       23.29       0.00       0.00       2.46      17.57       1.12      18.69        0.67   274.81   0.803
  564                       23.29       0.00       0.00       2.46      17.57       1.12      18.69        0.63   255.78   0.803
  565                       23.29       0.00       0.00       2.46      17.57       1.12      18.69        0.60   245.88   0.803
  566                       23.29       0.00       0.00       2.46      17.57       1.12      18.69        0.53   216.96   0.803
  567                       23.29       0.00       0.00       2.46      17.57       1.12      18.69        0.48   194.12   0.803
  568                       23.29       0.00       0.00       2.46      17.57       1.12      18.69        0.43   176.61   0.803
  569                       23.29       0.00       0.00       2.46      17.57       1.12      18.69        0.44   178.13   0.803
  570                       23.29       0.00       0.00       2.46      17.57       1.12      18.69        0.38   153.77   0.803
  571                       23.29       0.00       0.00       2.46      17.57       1.12      18.69        0.66   270.24   0.803
  572                       23.29       0.00       0.00       2.46      17.57       1.12      18.69        0.31   124.84   0.803
  573                       23.29       0.00       0.00       2.46      17.57       1.12      18.69        0.30   123.32   0.803
  574                       23.29       0.00       0.00       2.46      17.57       1.12      18.69        0.29   117.23   0.803
  575                       23.29       0.00       0.00       2.46      17.57       1.12      18.69        0.27   110.38   0.803
  576                       23.29       0.00       0.00       2.46      17.57       1.12      18.69        0.26   105.05   0.803
  577                       23.29       0.00       0.00       2.46      17.57       1.12      18.69        0.24    99.72   0.803
  578                       23.29       0.00       0.00       2.46      17.57       1.12      18.69        0.24    97.44   0.803
  579                       23.29       0.00       0.00       2.46      17.57       1.12      18.69        0.45   183.46   0.803
  580                       23.29       0.00       0.00       2.46      17.57       1.12      18.69        0.21    84.50   0.803
  581                       23.29       0.00       0.00       2.46      17.57       1.12      18.69        0.37   149.97   0.803
  582                       23.29       0.00       0.00       2.46      17.57       1.12      18.69        0.33   135.50   0.803
  583                       23.29       0.00       0.00       2.46      17.57       1.12      18.69        0.57   232.18   0.803
  584                       23.29       0.00       0.00       2.46      17.57       1.12      18.69        0.56   226.09   0.803
  585                       23.29       0.00       0.00       2.46      17.57       1.12      18.69        0.49   200.97   0.803
  586                       23.29       0.00       0.00       2.46      17.57       1.12      18.69        0.36   145.40   0.803
  587                       23.29       0.00       0.00       2.46      17.57       1.12      18.69        0.35   140.83   0.803
  588                       23.29       0.00       0.00       2.46      17.57       1.12      18.69        0.36   144.64   0.803
  589                       23.29       0.00       0.00       2.46      17.57       1.12      18.69        0.35   143.11   0.803
  590                       23.29       0.00       0.00       2.46      17.57       1.12      18.69        0.35   141.59   0.803
  591                       23.29       0.00       0.00       2.46      17.57       1.12      18.69        0.36   145.40   0.803
  592                       23.29       0.00       0.00       2.46      17.57       1.12      18.69        0.36   146.16   0.803
  593                       23.29       0.00       0.00       2.46      17.57       1.12      18.69        0.37   152.25   0.803
  594                       23.29       0.00       0.00       2.46      17.57       1.12      18.69        0.36   148.44   0.803
  595                       23.29       0.00       0.00       2.46      17.57       1.12      18.69        0.37   152.25   0.803
  596                       23.29       0.00       0.00       2.46      17.57       1.12      18.69        0.37   150.73   0.803
  597                       23.29       0.00       0.00       2.46      17.57       1.12      18.69        0.37   151.49   0.803
  598                       23.29       0.00       0.00       2.46      17.57       1.12      18.69        0.38   155.29   0.803
  599                       23.29       0.00       0.00       2.46      17.57       1.12      18.69        0.39   159.10   0.803
  600                       23.29       0.00       0.00       2.46      17.57       1.12      18.69        0.38   156.06   0.803
  601                       23.29       0.00       0.00       2.46      17.57       1.12      18.69        0.40   161.38   0.803
  602                       23.29       0.00       0.00       2.46      17.57       1.12      18.69        0.39   158.34   0.803
  603                       23.29       0.00       0.00       2.46      17.57       1.12      18.69        0.40   162.91   0.803
  604                       23.29       0.00       0.00       2.46      17.57       1.12      18.69        0.41   169.00   0.803
  605                       23.29       0.00       0.00       2.46      17.57       1.12      18.69        0.38   153.77   0.803
  606                       23.29       0.00       0.00       2.46      17.57       1.12      18.69        0.39   160.62   0.803
  607                       23.29       0.00       0.00       2.46      17.57       1.12      18.69        0.40   162.91   0.803
  608                       23.29       0.00       0.00       2.46      17.57       1.12      18.69        0.51   209.34   0.803
  609                       23.29       0.00       0.00       2.46      17.57       1.12      18.69        0.52   211.63   0.803
  610                       23.29       0.00       0.00       2.46      17.57       1.12      18.69        0.40   163.67   0.803
  611                       23.29       0.00       0.00       2.46      17.57       1.12      18.69        0.40   162.91   0.803
  612                       23.29       0.00       0.00       2.46      17.57       1.12      18.69        0.43   175.85   0.803
  613                       23.29       0.00       0.00       2.46      17.57       1.12      18.69        0.34   138.55   0.803
  614                       23.29       0.00       0.00       2.46      17.57       1.12      18.69        0.54   220.76   0.803
  615                       23.29       0.00       0.00       2.46      17.57       1.12      18.69        0.67   274.05   0.803
  616                       23.29       0.00       0.00       2.46      17.57       1.12      18.69        0.34   140.07   0.803
  617                       23.29       0.00       0.00       2.46      17.57       1.12      18.69        0.33   136.26   0.803
  618                       23.29       0.00       0.00       2.46      17.57       1.12      18.69        0.34   137.79   0.803
  619                       23.29       0.00       0.00       2.46      17.57       1.12      18.69        0.34   137.02   0.803
  620                       23.29       0.00       0.00       2.46      17.57       1.12      18.69        0.33   135.50   0.803
  621                       23.29       0.00       0.00       2.46      17.57       1.12      18.69        0.34   138.55   0.803
  622                       23.29       0.00       0.00       2.46      17.57       1.12      18.69        0.33   136.26   0.803
  623                       23.29       0.00       0.00       2.46      17.57       1.12      18.69        0.34   137.79   0.803
  624                       23.29       0.00       0.00       2.46      17.57       1.12      18.69        0.34   138.55   0.803
  625                       23.29       0.00       0.00       2.46      17.57       1.12      18.69        0.34   137.79   0.803
  626                       23.29       0.00       0.00       2.46      17.57       1.12      18.69        0.34   137.02   0.803
  627                       23.29       0.00       0.00       2.46      17.57       1.12      18.69        0.34   137.79   0.803
  628                       23.29       0.00       0.00       2.46      17.57       1.12      18.69        0.34   137.02   0.803
  629                       23.29       0.00       0.00       2.46      17.57       1.12      18.69        0.35   140.83   0.803
  630                       23.29       0.00       0.00       2.46      17.57       1.12      18.69        0.33   134.74   0.803
  631                       23.29       0.00       0.00       2.46      17.57       1.12      18.69        0.34   139.31   0.803
  632                       23.29       0.00       0.00       2.46      17.57       1.12      18.69        0.34   137.02   0.803
  633                       23.29       0.00       0.00       2.46      17.57       1.12      18.69        0.36   146.92   0.803
  634                       23.29       0.00       0.00       2.46      17.57       1.12      18.69        0.33   135.50   0.803
  635                       23.29       0.00       0.00       2.46      17.57       1.12      18.69        0.33   135.50   0.803
  636                       23.29       0.00       0.00       2.46      17.57       1.12      18.69        0.32   130.93   0.803
  637                       23.29       0.00       0.00       2.46      17.57       1.12      18.69        0.36   146.16   0.803
  638                       23.29       0.00       0.00       2.46      17.57       1.12      18.69        0.54   219.24   0.803
  639                       23.29       0.00       0.00       2.46      17.57       1.12      18.69        0.42   172.04   0.803
  640                       23.29       0.00       0.00       2.46      17.57       1.12      18.69        0.34   140.07   0.803
  641                       23.29       0.00       0.00       2.46      17.57       1.12      18.69        0.59   239.03   0.803
  642                       23.29       0.00       0.00       2.46      17.57       1.12      18.69        0.33   133.98   0.803
  643                       23.29       0.00       0.00       2.46      17.57       1.12      18.69        0.33   135.50   0.803
  644                       23.29       0.00       0.00       2.46      17.57       1.12      18.69        0.33   135.50   0.803
  645                       23.29       0.00       0.00       2.46      17.57       1.12      18.69        0.33   132.46   0.803
  646                       23.29       0.00       0.00       2.46      17.57       1.12      18.69        0.33   132.46   0.803
  647                       23.29       0.00       0.00       2.46      17.57       1.12      18.69        0.33   133.98   0.803
  648                       23.29       0.00       0.00       2.46      17.57       1.12      18.69        0.33   134.74   0.803
  649                       23.29       0.00       0.00       2.46      17.57       1.12      18.69        0.33   133.22   0.803
  650                       23.29       0.00       0.00       2.46      17.57       1.12      18.69        0.32   131.70   0.803
  651                       23.29       0.00       0.00       2.46      17.57       1.12      18.69        0.33   134.74   0.803
  652                       23.29       0.00       0.00       2.46      17.57       1.12      18.69        0.33   133.22   0.803
  653                       23.29       0.00       0.00       2.46      17.57       1.12      18.69        0.33   133.22   0.803
  654                       23.29       0.00       0.00       2.46      17.57       1.12      18.69        0.33   133.22   0.803
  655                       23.29       0.00       0.00       2.46      17.57       1.12      18.69        0.33   133.22   0.803
  656                       23.29       0.00       0.00       2.46      17.57       1.12      18.69        0.33   133.22   0.803
  657                       23.29       0.00       0.00       2.46      17.57       1.12      18.69        0.33   133.22   0.803
  658                       23.29       0.00       0.00       2.46      17.57       1.12      18.69        0.33   133.22   0.803
  659                       23.29       0.00       0.00       2.46      17.57       1.12      18.69        0.33   133.22   0.803
  660                       23.29       0.00       0.00       2.46      17.57       1.12      18.69        0.33   133.22   0.803
  661                       23.29       0.00       0.00       2.46      17.57       1.12      18.69        0.33   136.26   0.803
  662                       23.29       0.00       0.00       2.46      17.57       1.12      18.69        0.50   204.01   0.803
  663                       23.29       0.00       0.00       2.46      17.57       1.12      18.69        0.33   136.26   0.803
  664                       23.29       0.00       0.00       2.46      17.57       1.12      18.69        1.57   639.45   0.803
  665                       23.29       0.00       0.00       2.46      17.57       1.12      18.69        1.42   578.55   0.803
  666                       23.29       0.00       0.00       2.46      17.57       1.12      18.69        1.12   456.75   0.803
  667                       23.29       0.00       0.00       2.46      17.57       1.12      18.69        0.60   242.84   0.803
  668                       23.29       0.00       0.00       2.46      17.57       1.12      18.69        0.49   199.45   0.803
  669                       23.29       0.00       0.00       2.46      17.57       1.12      18.69        0.50   204.78   0.803
  670                       23.29       0.00       0.00       2.46      17.57       1.12      18.69        0.49   200.21   0.803
  671                       23.29       0.00       0.00       2.46      17.57       1.12      18.69        0.49   200.97   0.803
  672                       23.29       0.00       0.00       2.46      17.57       1.12      18.69        0.75   304.50   0.803
  673                       23.29       0.00       0.00       2.46      17.57       1.12      18.69        0.64   260.35   0.803
  674                       23.29       0.00       0.00       2.46      17.57       1.12      18.69        0.93   380.62   0.803
  675                       23.29       0.00       0.00       2.46      17.57       1.12      18.69        0.88   357.79   0.803
  676                       23.29       0.00       0.00       2.46      17.57       1.12      18.69        0.85   346.37   0.803
  677                       23.29       0.00       0.00       2.46      17.57       1.12      18.69        0.75   304.50   0.803
  678                       23.29       0.00       0.00       2.46      17.57       1.12      18.69        0.77   312.11   0.803
  679                       23.29       0.00       0.00       2.46      17.57       1.12      18.69        0.66   267.96   0.803
  680                       23.29       0.00       0.00       2.46      17.57       1.12      18.69        0.28   114.19   0.803
  681                       23.29       0.00       0.00       2.46      17.57       1.12      18.69        0.50   205.54   0.803
  682                       23.29       0.00       0.00       2.46      17.57       1.12      18.69        0.41   166.71   0.803
  683                       23.29       0.00       0.00       2.46      17.57       1.12      18.69        0.41   168.24   0.803
  684                       23.29       0.00       0.00       2.46      17.57       1.12      18.69        0.66   269.48   0.803
  685                       23.29       0.00       0.00       2.46      17.57       1.12      18.69        0.63   257.30   0.803
  686                       23.29       0.00       0.00       2.46      17.57       1.12      18.69        0.80   324.29   0.803
  687                       23.29       0.00       0.00       9.86       4.43       2.50       6.93        1.25   438.76   0.297
  688                       23.29       0.00       0.00       2.46      17.57       1.12      18.69        0.37   150.73   0.803
  689                       23.29       0.00       0.00       2.46      17.57       1.12      18.69        0.35   143.11   0.803
  690                       23.29       0.00       0.00       2.46      17.57       1.12      18.69        0.87   354.74   0.803
  691                       23.29       0.00       0.00       2.46      17.57       1.12      18.69        1.11   450.66   0.803
  692                       23.29       0.00       0.00       2.46      17.57       1.12      18.69        0.62   251.21   0.803
  693                       23.29       0.00       0.00       2.46      17.57       1.12      18.69        0.63   256.54   0.803
  694                       23.29       0.00       0.00       2.46      17.57       1.12      18.69        1.14   464.36   0.803
  695                       23.29       0.00       0.00       2.46      17.57       1.12      18.69        0.25   102.01   0.803
  696                       23.29       0.00       0.00       2.46      17.57       1.12      18.69        0.34   138.55   0.803
  697                       23.29       0.00       0.00       2.46      17.57       1.12      18.69        0.40   161.38   0.803
  698                       23.29       0.00       0.00       2.46      17.57       1.12      18.69        0.69   280.90   0.803
  699                       23.29       0.00       0.00       2.46      17.57       1.12      18.69        0.54   220.76   0.803
  700                       23.29       0.00       0.00       2.46      17.57       1.12      18.69        0.68   278.62   0.803
  701                       23.29       0.00       0.00       2.46      17.57       1.12      18.69        0.51   208.58   0.803
  702                       23.29       0.00       0.00       2.46      17.57       1.12      18.69        0.31   125.61   0.803
  703                       23.29       0.00       0.00       2.46      17.57       1.12      18.69        0.49   197.92   0.803
  704                       23.29       0.00       0.00       2.46      17.57       1.12      18.69        0.50   205.54   0.803
  705                       23.29       0.00       0.00       2.46      17.57       1.12      18.69        0.27   108.10   0.803
  706                       23.29       0.00       0.00       2.46      17.57       1.12      18.69        0.22    88.30   0.803
  707                       23.29       0.00       0.00       2.46      17.57       1.12      18.69        0.44   181.18   0.803
  708                       23.29       0.00       0.00       2.46      17.57       1.12      18.69        0.61   248.17   0.803
  709                       23.29       0.00       0.00       2.46      17.57       1.12      18.69        0.29   118.75   0.803
  710                       23.29       0.00       0.00       2.46      17.57       1.12      18.69        0.19    76.12   0.803
  711                       23.29       0.00       0.00       2.46      17.57       1.12      18.69        0.16    64.71   0.803
  712                       23.29       0.00       0.00       2.46      17.57       1.12      18.69        0.46   188.79   0.803
  713                       23.29       0.00       0.00       2.46      17.57       1.12      18.69        0.19    76.12   0.803
  714                       23.29       0.00       0.00       2.46      17.57       1.12      18.69        0.19    76.12   0.803
  715                       23.29       0.00       0.00       2.46      17.57       1.12      18.69        0.19    76.12   0.803
  716                       23.29       0.00       0.00       2.46      17.57       1.12      18.69        0.19    76.12   0.803
  717                       23.29       0.00       0.00       2.46      17.57       1.12      18.69        0.19    76.12   0.803
  718                       23.29       0.00       0.00       2.46      17.57       1.12      18.69        0.28   114.19   0.803
  719                       23.29       0.00       0.00       2.46      17.57       1.12      18.69        0.28   114.19   0.803
  720                       23.29       0.00       0.00       2.46      17.57       1.12      18.69        0.28   114.19   0.803
  721                       23.29       0.00       0.00       2.46      17.57       1.12      18.69        0.28   114.19   0.803
  722                       23.29       0.00       0.00       2.46      17.57       1.12      18.69        0.28   114.19   0.803
  723                       23.29       0.00       0.00       2.46      17.57       1.12      18.69        0.28   114.19   0.803
  724                       23.29       0.00       0.00       2.46      17.57       1.12      18.69        0.28   114.19   0.803
  725                       23.29       0.00       0.00       2.46      17.57       1.12      18.69        0.28   114.19   0.803
  726                       23.29       0.00       0.00       2.46      17.57       1.12      18.69        0.28   114.19   0.803
  727                       23.29       0.00       0.00       2.46      17.57       1.12      18.69        0.28   114.19   0.803
  728                       23.29       0.00       0.00       2.46      17.57       1.12      18.69        0.28   114.19   0.803
  729                       23.29       0.00       0.00       2.46      17.57       1.12      18.69        0.28   114.19   0.803
  730                       23.29       0.00       0.00       2.46      17.57       1.12      18.69        0.28   114.19   0.803
  731                       23.29       0.00       0.00       2.46      17.57       1.12      18.69        0.28   114.19   0.803
  732                       23.29       0.00       0.00       2.46      17.57       1.12      18.69        0.28   114.19   0.803
  733                       23.29       0.00       0.00       2.46      17.57       1.12      18.69        0.28   114.19   0.803
  734                       23.29       0.00       0.00       2.46      17.57       1.12      18.69        0.28   114.19   0.803
  735                       23.29       0.00       0.00       2.46      17.57       1.12      18.69        0.28   114.19   0.803
  736                       23.29       0.00       0.00       2.46      17.57       1.12      18.69        0.28   114.19   0.803
  737                       23.29       0.00       0.00       2.46      17.57       1.12      18.69        0.28   114.19   0.803
  738                       23.29       0.00       0.00       2.46      17.57       1.12      18.69        0.28   114.19   0.803
  739                       23.29       0.00       0.00       2.46      17.57       1.12      18.69        0.28   114.19   0.803
  740                       23.29       0.00       0.00       2.46      17.57       1.12      18.69        0.28   114.19   0.803
  741                       23.29       0.00       0.00       2.46      17.57       1.12      18.69        0.28   114.19   0.803
  742                       23.29       0.00       0.00       2.46      17.57       1.12      18.69        0.28   114.19   0.803
  743                       23.29       0.00       0.00       2.46      17.57       1.12      18.69        0.28   114.19   0.803
  744                       23.29       0.00       0.00       2.46      17.57       1.12      18.69        0.19    76.12   0.803
  745                       23.29       0.00       0.00       0.00      17.57       2.81      20.37        0.31   118.96   0.875
  746                       23.29       0.00       0.00       0.00      17.57       2.81      20.37        0.31   118.96   0.875
  747                       23.29       0.00       0.00       0.00      17.57       2.81      20.37        0.41   158.61   0.875
  
  
  ******************
  Node Depth Summary
  ******************
  
  ---------------------------------------------------------------------------------
                                 Average  Maximum  Maximum  Time of Max    Reported
                                   Depth    Depth      HGL   Occurrence   Max Depth
  Node                 Type       Meters   Meters   Meters  days hr:min      Meters
  ---------------------------------------------------------------------------------
  1                    JUNCTION     0.13     0.66    17.51     0  01:26        0.57
  2                    JUNCTION     0.93     2.25    18.07     0  01:44        2.25
  3                    JUNCTION     0.90     2.20    18.13     0  01:48        2.20
  4                    JUNCTION     0.86     2.13    18.14     0  01:49        2.13
  5                    JUNCTION     0.82     2.06    18.14     0  01:52        2.06
  6                    JUNCTION     0.75     1.91    18.15     0  01:54        1.91
  7                    JUNCTION     0.23     1.52    18.00     0  01:28        1.50
  8                    JUNCTION     0.26     1.46    18.01     0  01:29        1.46
  9                    JUNCTION     0.25     1.41    18.08     0  01:33        1.41
  10                   JUNCTION     0.46     1.48    18.33     0  01:47        1.48
  11                   JUNCTION     0.54     1.66    18.27     0  01:43        1.66
  12                   JUNCTION     0.41     1.40    18.25     0  01:40        1.40
  13                   JUNCTION     0.50     1.62    18.24     0  01:41        1.62
  14                   JUNCTION     0.35     1.32    18.17     0  01:47        1.32
  15                   JUNCTION     0.47     1.53    18.15     0  01:46        1.53
  16                   JUNCTION     0.34     1.26    18.11     0  01:54        1.26
  17                   JUNCTION     0.39     1.60    18.02     0  01:52        1.60
  18                   JUNCTION     0.74     1.62    18.47     0  01:51        1.62
  19                   JUNCTION     0.20     1.63    18.01     0  01:39        1.63
  20                   JUNCTION     0.31     1.88    18.01     0  01:37        1.88
  21                   JUNCTION     0.88     1.86    18.39     0  01:49        1.86
  22                   JUNCTION     0.50     1.90    18.02     0  01:49        1.90
  23                   JUNCTION     0.42     1.51    18.07     0  01:55        1.51
  24                   JUNCTION     0.55     1.76    18.09     0  01:51        1.76
  25                   JUNCTION     0.48     1.60    18.16     0  01:43        1.60
  26                   JUNCTION     0.56     1.86    18.14     0  01:38        1.86
  27                   JUNCTION     0.35     1.54    17.92     0  01:24        1.50
  28                   JUNCTION     0.56     1.74    18.07     0  01:39        1.74
  29                   JUNCTION     0.60     2.17    18.00     0  01:29        2.17
  30                   JUNCTION     0.82     2.67    17.56     0  01:29        2.66
  31                   JUNCTION     0.77     2.62    17.64     0  01:29        2.61
  32                   JUNCTION     0.69     2.22    17.88     0  01:29        2.22
  33                   JUNCTION     0.68     2.09    18.02     0  01:44        2.09
  34                   JUNCTION     0.53     1.83    18.03     0  01:47        1.83
  35                   JUNCTION     0.66     2.24    18.02     0  01:49        2.24
  36                   JUNCTION     0.89     1.86    18.11     0  01:42        1.86
  37                   JUNCTION     0.38     2.19    18.00     0  01:34        2.19
  38                   JUNCTION     0.47     2.55    17.99     0  01:34        2.35
  39                   JUNCTION     0.36     1.39    18.01     0  01:32        1.39
  40                   JUNCTION     0.92     2.26    18.08     0  01:32        2.26
  41                   JUNCTION     0.84     2.67    18.01     0  01:43        2.67
  42                   JUNCTION     1.02     3.11    18.00     0  01:28        3.07
  43                   JUNCTION     1.15     3.33    18.00     0  01:28        3.30
  44                   JUNCTION     1.14     3.40    17.18     0  01:26        3.27
  45                   JUNCTION     0.35     1.71    17.57     0  01:29        1.67
  46                   JUNCTION     0.31     1.68    17.95     0  01:29        1.62
  47                   JUNCTION     1.06     3.25    16.88     0  01:26        2.94
  48                   JUNCTION     0.63     2.23    17.61     0  01:38        2.23
  49                   JUNCTION     0.61     2.11    18.00     0  01:31        2.06
  50                   JUNCTION     0.54     1.73    18.06     0  01:41        1.73
  51                   JUNCTION     0.88     2.67    18.00     0  01:22        2.67
  52                   JUNCTION     0.26     1.10    17.23     0  01:35        1.10
  53                   JUNCTION     0.32     1.36    16.02     0  01:35        1.36
  54                   JUNCTION     0.75     2.18    15.81     0  01:35        2.18
  55                   JUNCTION     0.72     2.04    15.60     0  01:35        2.04
  56                   JUNCTION     0.69     1.88    15.37     0  01:35        1.88
  57                   JUNCTION     1.25     3.46    15.18     0  01:36        3.46
  58                   JUNCTION     0.44     1.43    18.28     0  01:46        1.43
  59                   JUNCTION     0.68     2.27    17.88     0  01:38        2.26
  60                   JUNCTION     0.26     0.70    16.80     0  01:30        0.70
  61                   JUNCTION     0.18     0.49    16.27     0  01:38        0.49
  62                   JUNCTION     0.13     0.35    16.59     0  01:30        0.35
  63                   JUNCTION     0.22     0.71    16.44     0  01:36        0.70
  64                   JUNCTION     0.19     0.60    16.46     0  01:36        0.60
  65                   JUNCTION     0.27     1.10    16.80     0  01:34        1.10
  66                   JUNCTION     0.13     0.34    16.66     0  01:30        0.34
  67                   JUNCTION     0.24     0.90    16.93     0  01:34        0.88
  68                   JUNCTION     0.12     0.56    17.01     0  01:34        0.53
  69                   JUNCTION     0.23     1.62    17.73     0  01:30        1.35
  70                   JUNCTION     0.17     1.63    18.00     0  01:30        1.27
  71                   JUNCTION     0.90     1.97    18.20     0  02:05        1.97
  72                   JUNCTION     0.18     1.80    18.00     0  01:28        1.54
  73                   JUNCTION     0.32     2.37    18.00     0  01:27        1.67
  74                   JUNCTION     0.02     0.27    16.69     0  01:37        0.27
  75                   JUNCTION     0.30     1.38    16.82     0  01:31        1.24
  76                   JUNCTION     0.00     0.00    16.41     0  00:00        0.00
  77                   JUNCTION     0.26     1.30    16.78     0  01:32        0.88
  78                   JUNCTION     0.09     0.25    16.88     0  01:31        0.25
  79                   JUNCTION     0.20     0.70    16.22     0  01:36        0.70
  80                   JUNCTION     0.33     1.01    16.20     0  01:36        1.00
  81                   JUNCTION     0.65     1.99    15.96     0  01:35        1.99
  82                   JUNCTION     0.64     2.02    16.05     0  01:35        2.02
  83                   JUNCTION     0.64     2.02    16.12     0  01:36        2.02
  84                   JUNCTION     0.64     2.03    16.19     0  01:35        2.03
  85                   JUNCTION     0.54     1.84    16.38     0  01:32        1.79
  86                   JUNCTION     0.56     1.95    16.60     0  01:32        1.89
  87                   JUNCTION     0.56     1.97    16.65     0  01:32        1.91
  88                   JUNCTION     0.48     1.87    16.86     0  01:31        1.82
  89                   JUNCTION     0.49     2.12    17.27     0  01:31        2.02
  90                   JUNCTION     0.48     2.18    17.38     0  01:31        2.05
  91                   JUNCTION     0.39     2.03    17.50     0  01:31        1.90
  92                   JUNCTION     0.37     2.09    17.69     0  01:31        1.95
  93                   JUNCTION     0.35     2.07    17.74     0  01:31        1.94
  94                   JUNCTION     1.06     2.22    18.20     0  02:04        2.22
  95                   JUNCTION     0.85     2.20    18.30     0  01:53        2.20
  96                   JUNCTION     0.91     2.31    18.29     0  01:53        2.31
  97                   JUNCTION     1.05     2.62    18.27     0  01:52        2.62
  98                   JUNCTION     1.09     2.71    18.26     0  01:51        2.71
  99                   JUNCTION     1.14     2.79    18.24     0  01:50        2.79
  100                  JUNCTION     1.17     2.86    18.21     0  01:50        2.86
  101                  JUNCTION     1.21     2.93    18.18     0  01:50        2.93
  102                  JUNCTION     1.25     3.00    18.16     0  01:49        3.00
  103                  JUNCTION     1.27     3.04    18.12     0  01:48        3.04
  104                  JUNCTION     1.27     3.06    18.06     0  01:47        3.06
  105                  JUNCTION     1.28     3.07    18.00     0  01:44        3.07
  106                  JUNCTION     1.27     3.08    17.94     0  01:38        3.08
  107                  JUNCTION     1.26     3.22    18.00     0  01:25        3.07
  108                  JUNCTION     1.25     3.07    17.77     0  01:34        3.07
  109                  JUNCTION     1.25     3.06    17.63     0  01:34        3.06
  110                  JUNCTION     0.81     2.43    18.00     0  01:29        2.33
  111                  JUNCTION     0.80     2.31    18.08     0  01:38        2.31
  112                  JUNCTION     0.77     2.25    18.22     0  01:36        2.25
  113                  JUNCTION     0.60     1.80    18.19     0  01:47        1.80
  114                  JUNCTION     0.39     1.29    18.03     0  02:00        1.29
  115                  JUNCTION     0.69     1.75    18.08     0  02:03        1.75
  116                  JUNCTION     0.38     1.29    18.02     0  02:09        1.29
  117                  JUNCTION     0.55     1.73    18.02     0  02:13        1.73
  118                  JUNCTION     0.35     1.34    18.07     0  01:59        1.34
  119                  JUNCTION     0.61     1.78    18.01     0  01:47        1.78
  120                  JUNCTION     0.45     1.30    18.03     0  01:53        1.30
  121                  JUNCTION     0.73     1.87    18.06     0  02:06        1.87
  122                  JUNCTION     1.28     2.65    18.15     0  02:02        2.65
  123                  JUNCTION     0.15     1.13    17.98     0  01:31        0.98
  124                  JUNCTION     1.81     4.42    17.42     0  01:34        4.39
  125                  JUNCTION     1.52     4.19    18.00     0  01:28        3.78
  126                  JUNCTION     1.64     3.94    17.94     0  01:28        3.83
  127                  JUNCTION     1.70     3.89    18.00     0  01:28        3.83
  128                  JUNCTION     1.90     3.82    18.23     0  01:37        3.82
  129                  JUNCTION     1.84     3.61    18.21     0  01:39        3.61
  130                  JUNCTION     1.78     3.42    18.17     0  01:44        3.42
  131                  JUNCTION     1.68     3.19    18.15     0  01:59        3.19
  132                  JUNCTION     1.61     3.04    18.15     0  02:01        3.04
  133                  JUNCTION     1.49     2.84    18.15     0  02:08        2.84
  134                  JUNCTION     1.37     2.64    18.15     0  02:12        2.64
  135                  JUNCTION     1.16     2.27    18.14     0  02:18        2.27
  136                  JUNCTION     0.95     1.98    18.14     0  02:31        1.98
  137                  JUNCTION     0.88     1.97    18.13     0  02:04        1.97
  138                  JUNCTION     1.53     3.06    18.11     0  01:59        3.06
  139                  JUNCTION     1.58     3.17    18.08     0  01:46        3.17
  140                  JUNCTION     1.61     3.27    18.04     0  01:41        3.27
  141                  JUNCTION     1.64     3.36    18.00     0  01:29        3.36
  142                  JUNCTION     0.68     2.07    18.08     0  01:50        2.07
  143                  JUNCTION     0.98     2.46    18.02     0  02:05        2.46
  144                  JUNCTION     1.14     2.69    18.02     0  02:02        2.69
  145                  JUNCTION     1.39     2.99    18.04     0  01:52        2.99
  146                  JUNCTION     1.47     3.19    18.04     0  01:50        3.19
  147                  JUNCTION     0.75     1.97    18.06     0  01:59        1.97
  148                  JUNCTION     0.87     2.17    18.04     0  01:58        2.17
  149                  JUNCTION     0.98     2.39    18.03     0  01:42        2.39
  150                  JUNCTION     1.15     2.68    18.03     0  01:35        2.68
  151                  JUNCTION     1.25     2.87    18.02     0  01:38        2.87
  152                  JUNCTION     1.35     3.06    18.01     0  01:35        3.06
  153                  JUNCTION     1.34     3.25    18.00     0  01:27        2.97
  154                  JUNCTION     1.35     3.45    18.00     0  01:27        3.01
  155                  JUNCTION     0.02     0.11    16.23     0  01:43        0.11
  156                  JUNCTION     0.73     1.56    15.50     0  01:35        1.56
  157                  JUNCTION     0.94     2.21    16.40     0  01:35        2.20
  158                  JUNCTION     1.02     2.46    16.77     0  01:34        2.46
  159                  JUNCTION     1.10     2.71    17.12     0  01:34        2.71
  160                  JUNCTION     1.19     2.94    17.42     0  01:34        2.94
  161                  JUNCTION     1.69     4.33    17.98     0  01:37        4.32
  162                  JUNCTION     1.25     3.23    18.06     0  01:40        3.23
  163                  JUNCTION     1.24     3.04    18.10     0  01:46        3.04
  164                  JUNCTION     0.80     1.65    18.26     0  02:10        1.65
  165                  JUNCTION     0.79     1.74    18.35     0  01:58        1.74
  166                  JUNCTION     0.48     1.45    18.07     0  02:07        1.45
  167                  JUNCTION     0.82     1.88    18.73     0  01:48        1.88
  168                  JUNCTION     0.81     1.86    18.48     0  01:54        1.86
  169                  JUNCTION     0.76     1.78    18.12     0  01:46        1.78
  170                  JUNCTION     0.57     1.49    18.11     0  01:54        1.49
  171                  JUNCTION     0.51     1.43    18.28     0  01:51        1.43
  172                  JUNCTION     0.67     1.55    18.17     0  01:59        1.55
  173                  JUNCTION     0.81     1.78    18.17     0  02:01        1.78
  174                  JUNCTION     0.88     1.98    18.13     0  01:51        1.98
  175                  JUNCTION     0.97     2.18    18.10     0  01:47        2.18
  176                  JUNCTION     0.43     1.40    18.02     0  01:41        1.40
  177                  JUNCTION     1.62     3.74    18.00     0  01:30        3.45
  178                  JUNCTION     0.91     2.69    18.04     0  01:44        2.69
  179                  JUNCTION     0.59     1.59    18.21     0  01:46        1.59
  180                  JUNCTION     0.62     1.70    18.08     0  01:42        1.70
  181                  JUNCTION     0.73     1.93    18.08     0  01:42        1.93
  182                  JUNCTION     1.75     3.77    18.05     0  01:42        3.77
  183                  JUNCTION     0.38     1.24    18.09     0  01:43        1.24
  184                  JUNCTION     0.48     1.47    18.09     0  01:46        1.47
  185                  JUNCTION     0.80     1.70    18.31     0  02:01        1.70
  186                  JUNCTION     0.88     1.89    18.28     0  01:58        1.89
  187                  JUNCTION     0.95     2.09    18.25     0  01:52        2.09
  188                  JUNCTION     0.64     1.77    18.12     0  01:41        1.77
  189                  JUNCTION     0.95     2.39    18.11     0  01:35        2.39
  190                  JUNCTION     0.97     2.47    18.00     0  01:27        2.47
  191                  JUNCTION     1.46     3.71    18.00     0  01:27        3.19
  192                  JUNCTION     0.74     1.37    14.17     0  01:36        1.37
  193                  JUNCTION     0.95     2.13    15.90     0  01:41        2.12
  194                  JUNCTION     0.03     0.15    16.60     0  01:35        0.15
  195                  JUNCTION     0.46     1.76    18.00     0  01:28        1.76
  196                  JUNCTION     0.44     1.38    18.23     0  01:44        1.38
  197                  JUNCTION     0.80     1.75    18.13     0  02:14        1.75
  198                  JUNCTION     1.04     2.18    18.13     0  02:08        2.18
  199                  JUNCTION     1.31     2.62    18.17     0  01:46        2.62
  200                  JUNCTION     0.85     1.79    18.21     0  01:58        1.79
  201                  JUNCTION     0.65     1.66    18.22     0  01:54        1.66
  202                  JUNCTION     0.82     2.17    18.17     0  01:43        2.17
  203                  JUNCTION     0.70     1.59    18.12     0  01:56        1.59
  204                  JUNCTION     0.94     2.07    18.10     0  01:57        2.07
  205                  JUNCTION     1.38     2.83    18.08     0  01:47        2.83
  206                  JUNCTION     1.39     3.17    18.04     0  01:35        3.17
  207                  JUNCTION     0.58     1.76    18.11     0  01:39        1.76
  208                  JUNCTION     0.33     1.24    18.09     0  01:41        1.24
  209                  JUNCTION     0.94     2.22    18.11     0  01:47        2.22
  210                  JUNCTION     0.57     1.69    18.08     0  01:39        1.69
  211                  JUNCTION     0.69     1.84    17.57     0  01:34        1.84
  212                  JUNCTION     1.29     2.95    17.57     0  01:34        2.94
  213                  JUNCTION     0.47     1.25    15.34     0  01:35        1.25
  214                  JUNCTION     0.17     1.82    18.00     0  01:32        1.57
  215                  JUNCTION     0.99     2.42    18.08     0  01:44        2.42
  216                  JUNCTION     0.13     1.15    18.00     0  01:29        0.98
  217                  JUNCTION     1.58     4.35    18.00     0  01:28        4.12
  218                  JUNCTION     1.25     4.00    17.26     0  01:29        3.90
  219                  JUNCTION     0.50     1.37    13.98     0  01:29        1.36
  220                  JUNCTION     0.62     1.29    13.30     0  01:30        1.29
  221                  JUNCTION     0.52     2.10    17.59     0  01:30        2.08
  222                  JUNCTION     0.36     1.63    18.01     0  01:34        1.63
  223                  JUNCTION     0.26     1.26    18.06     0  01:36        1.26
  224                  JUNCTION     0.48     2.02    18.00     0  01:27        2.00
  225                  JUNCTION     0.39     1.79    18.01     0  01:30        1.79
  226                  JUNCTION     0.13     1.16    18.01     0  01:32        1.16
  227                  JUNCTION     0.23     1.69    18.00     0  01:28        1.52
  228                  JUNCTION     0.37     2.18    17.95     0  01:30        1.87
  229                  JUNCTION     0.21     1.79    18.00     0  01:31        1.21
  230                  JUNCTION     0.05     1.15    18.00     0  01:30        1.15
  231                  JUNCTION     0.19     1.70    18.00     0  01:24        1.70
  232                  JUNCTION     0.27     1.67    17.42     0  01:30        1.66
  233                  JUNCTION     0.89     2.75    17.42     0  01:39        2.75
  234                  JUNCTION     0.39     1.51    15.54     0  01:28        1.27
  235                  JUNCTION     0.34     1.61    15.00     0  01:28        1.18
  236                  JUNCTION     0.47     1.44    14.49     0  01:34        1.44
  237                  JUNCTION     1.50     3.21    17.09     0  01:40        3.21
  238                  JUNCTION     0.99     2.22    15.72     0  01:38        2.20
  239                  JUNCTION     0.67     1.71    14.46     0  01:35        1.71
  240                  JUNCTION     0.81     1.83    14.30     0  01:33        1.83
  241                  JUNCTION     1.02     2.50    17.54     0  01:42        2.50
  242                  JUNCTION     0.23     1.77    18.00     0  01:26        1.25
  243                  JUNCTION     0.30     1.30    16.90     0  01:31        1.30
  244                  JUNCTION     0.02     0.17    16.81     0  01:36        0.17
  245                  JUNCTION     0.73     2.18    16.27     0  01:35        2.18
  246                  JUNCTION     0.96     2.47    17.71     0  01:40        2.46
  247                  JUNCTION     0.59     1.63    18.00     0  01:26        1.63
  248                  JUNCTION     1.15     2.56    17.97     0  01:33        2.55
  249                  JUNCTION     1.14     3.21    18.00     0  01:27        3.04
  250                  JUNCTION     0.98     3.49    17.83     0  01:30        3.28
  251                  JUNCTION     0.52     1.87    17.85     0  01:40        1.83
  252                  JUNCTION     0.81     1.80    18.17     0  01:56        1.80
  253                  JUNCTION     1.18     2.48    18.09     0  01:46        2.48
  254                  JUNCTION     0.40     1.70    17.92     0  01:40        1.64
  255                  JUNCTION     0.98     2.03    18.40     0  01:46        2.03
  256                  JUNCTION     1.08     2.29    18.13     0  01:57        2.29
  257                  JUNCTION     0.72     2.02    18.29     0  01:42        2.02
  258                  JUNCTION     0.65     2.30    17.99     0  01:32        2.24
  259                  JUNCTION     0.66     1.93    18.14     0  01:54        1.93
  260                  JUNCTION     0.68     1.79    18.16     0  02:00        1.79
  261                  JUNCTION     0.86     2.26    18.15     0  01:48        2.26
  262                  JUNCTION     0.10     1.15    18.00     0  01:32        1.15
  263                  JUNCTION     0.66     2.53    17.94     0  01:32        2.41
  264                  JUNCTION     0.83     2.23    18.16     0  01:47        2.23
  265                  JUNCTION     0.94     2.62    18.05     0  01:39        2.62
  266                  JUNCTION     0.95     2.50    18.16     0  01:39        2.50
  267                  JUNCTION     0.67     2.14    17.04     0  01:41        2.14
  268                  JUNCTION     0.56     2.42    17.62     0  01:32        1.99
  269                  JUNCTION     0.28     1.79    18.00     0  01:31        1.63
  270                  JUNCTION     0.75     2.70    18.00     0  01:26        2.41
  271                  JUNCTION     1.00     2.85    17.48     0  01:38        2.83
  272                  JUNCTION     0.99     2.76    17.13     0  01:40        2.76
  273                  JUNCTION     1.00     2.70    16.81     0  01:41        2.70
  274                  JUNCTION     0.87     2.31    16.16     0  01:40        2.30
  275                  JUNCTION     0.57     2.24    18.00     0  01:27        2.24
  276                  JUNCTION     0.49     1.98    18.01     0  01:36        1.98
  277                  JUNCTION     0.80     2.09    18.07     0  01:59        2.09
  278                  JUNCTION     0.99     2.39    18.09     0  01:48        2.39
  279                  JUNCTION     1.13     2.88    18.07     0  01:39        2.88
  280                  JUNCTION     0.57     1.88    18.07     0  01:43        1.88
  281                  JUNCTION     1.06     3.73    17.95     0  01:30        3.35
  282                  JUNCTION     0.46     1.73    17.42     0  01:44        1.73
  283                  JUNCTION     0.47     1.75    17.24     0  01:44        1.75
  284                  JUNCTION     0.01     0.12    16.65     0  01:42        0.11
  285                  JUNCTION     1.04     2.92    16.63     0  01:39        2.92
  286                  JUNCTION     1.08     3.08    16.85     0  01:38        3.08
  287                  JUNCTION     1.07     3.18    17.07     0  01:38        3.17
  288                  JUNCTION     1.08     3.26    17.29     0  01:38        3.26
  289                  JUNCTION     0.15     0.46    17.02     0  01:41        0.46
  290                  JUNCTION     0.88     2.96    17.16     0  01:31        2.74
  291                  JUNCTION     0.91     2.69    16.55     0  01:37        2.69
  292                  JUNCTION     0.88     2.52    16.20     0  01:40        2.52
  293                  JUNCTION     1.15     2.65    15.60     0  01:39        2.65
  294                  JUNCTION     0.69     3.03    17.81     0  01:35        3.00
  295                  JUNCTION     0.02     0.14    16.99     0  01:47        0.14
  296                  JUNCTION     0.65     2.65    17.83     0  01:30        2.55
  297                  JUNCTION     0.59     2.50    17.86     0  01:34        2.48
  298                  JUNCTION     0.64     1.44    18.29     0  01:53        1.44
  299                  JUNCTION     1.05     2.24    18.22     0  02:05        2.24
  300                  JUNCTION     1.16     2.46    18.21     0  02:03        2.46
  301                  JUNCTION     0.40     1.61    18.03     0  01:50        1.61
  302                  JUNCTION     1.21     3.68    18.03     0  01:33        3.68
  303                  JUNCTION     0.11     1.16    18.01     0  01:32        1.16
  304                  JUNCTION     0.34     1.84    18.01     0  01:34        1.84
  305                  JUNCTION     0.30     1.92    18.00     0  01:31        1.20
  306                  JUNCTION     0.52     1.83    17.10     0  01:49        1.81
  307                  JUNCTION     0.62     1.76    18.56     0  01:41        1.76
  308                  JUNCTION     0.74     1.84    17.16     0  01:30        1.83
  309                  JUNCTION     0.00     0.00    16.85     0  00:00        0.00
  310                  JUNCTION     0.13     0.75    17.55     0  01:31        0.49
  311                  JUNCTION     0.17     1.20    18.00     0  01:29        0.75
  312                  JUNCTION     0.26     1.16    18.01     0  01:28        1.16
  313                  JUNCTION     0.36     1.21    18.01     0  01:27        1.21
  314                  JUNCTION     0.42     1.29    18.09     0  01:42        1.29
  315                  JUNCTION     0.43     1.31    18.16     0  01:46        1.31
  316                  JUNCTION     0.51     1.49    18.29     0  01:44        1.49
  317                  JUNCTION     0.59     1.64    18.49     0  01:48        1.64
  318                  JUNCTION     0.42     1.34    18.19     0  01:54        1.34
  319                  JUNCTION     0.44     1.37    18.22     0  01:55        1.37
  320                  JUNCTION     0.56     1.54    18.39     0  01:49        1.54
  321                  JUNCTION     0.60     1.62    18.47     0  01:49        1.62
  322                  JUNCTION     0.60     1.60    18.45     0  01:49        1.60
  323                  JUNCTION     0.48     1.44    18.29     0  01:56        1.44
  324                  JUNCTION     0.57     1.57    18.37     0  01:48        1.57
  325                  JUNCTION     0.61     1.38    18.23     0  01:56        1.38
  326                  JUNCTION     0.61     1.37    18.22     0  02:03        1.37
  327                  JUNCTION     0.17     1.21    18.01     0  01:31        1.21
  328                  JUNCTION     0.13     1.20    18.00     0  01:30        0.84
  329                  JUNCTION     0.01     0.16    17.01     0  01:37        0.16
  330                  JUNCTION     0.33     1.30    18.15     0  01:35        1.30
  331                  JUNCTION     0.00     0.00    16.85     0  00:00        0.00
  332                  JUNCTION     0.09     0.25    17.10     0  01:30        0.25
  333                  JUNCTION     0.00     0.00    16.85     0  00:00        0.00
  334                  JUNCTION     0.00     0.00    16.85     0  00:00        0.00
  335                  JUNCTION     0.08     0.22    17.07     0  01:30        0.22
  336                  JUNCTION     0.12     0.74    17.59     0  01:27        0.54
  337                  JUNCTION     0.35     1.48    18.15     0  01:32        1.48
  338                  JUNCTION     0.46     1.30    18.15     0  01:52        1.30
  339                  JUNCTION     0.53     1.42    18.22     0  01:43        1.42
  340                  JUNCTION     0.56     1.48    18.15     0  01:46        1.48
  344                  JUNCTION     0.11     1.16    18.01     0  01:49        1.16
  345                  JUNCTION     0.02     0.24    17.09     0  01:49        0.24
  349                  JUNCTION     0.48     1.24    18.09     0  01:51        1.24
  z_0871_001_001       JUNCTION     0.46     1.30    18.15     0  01:53        1.30
  z_0871_001_002       JUNCTION     0.46     1.30    18.15     0  01:54        1.30
  z_0871_001_003       JUNCTION     0.41     1.22    18.07     0  01:49        1.22
  z_0871_002_006       JUNCTION     0.25     1.17    18.02     0  01:50        1.17
  z_0871_002_007       JUNCTION     0.24     1.18    18.03     0  01:39        1.18
  z_0871_002_008       JUNCTION     0.11     1.16    18.01     0  01:33        1.16
  z_0871_002_011       JUNCTION     0.55     1.27    18.12     0  01:49        1.27
  z_0871_002_012       JUNCTION     0.55     1.27    18.12     0  01:49        1.27
  z_0871_002_015       JUNCTION     0.25     1.17    18.02     0  01:37        1.17
  z_0871_002_019       JUNCTION     0.31     1.21    18.06     0  01:48        1.21
  z_0871_002_020       JUNCTION     0.31     1.21    18.06     0  01:49        1.21
  z_0871_002_021       JUNCTION     0.08     1.15    18.00     0  01:31        0.93
  z_0871_002_022       JUNCTION     0.00     0.00    16.85     0  00:00        0.00
  z_0871_002_023       JUNCTION     0.00     0.00    16.85     0  00:00        0.00
  z_0871_002_024       JUNCTION     0.00     0.00    16.85     0  00:00        0.00
  z_0871_002_025       JUNCTION     0.01     0.19    17.04     0  01:35        0.16
  z_0871_002_026       JUNCTION     0.03     1.15    18.00     0  01:31        1.15
  z_0871_002_027       JUNCTION     0.55     1.36    18.21     0  02:03        1.36
  z_0871_002_028       JUNCTION     0.01     0.08    16.93     0  01:37        0.08
  z_0871_002_029       JUNCTION     0.00     0.00    16.85     0  00:00        0.00
  z_0871_002_030       JUNCTION     0.00     0.00    16.85     0  00:00        0.00
  z_0871_003_001       JUNCTION     0.56     1.29    18.14     0  02:30        1.29
  z_0871_003_002       JUNCTION     0.15     1.16    18.01     0  01:32        1.15
  z_0871_003_003       JUNCTION     0.43     1.34    18.19     0  01:50        1.34
  z_0871_003_004       JUNCTION     0.33     1.26    18.11     0  01:50        1.26
  z_0871_003_005       JUNCTION     0.48     1.34    18.19     0  01:51        1.34
  z_0871_003_006       JUNCTION     0.65     1.42    18.27     0  02:11        1.42
  z_0871_003_007       JUNCTION     0.51     1.32    18.17     0  01:54        1.32
  z_0871_003_008       JUNCTION     0.64     1.51    18.36     0  01:59        1.51
  z_0871_003_009       JUNCTION     0.53     1.30    18.15     0  02:03        1.30
  z_0871_003_010       JUNCTION     0.37     1.22    18.07     0  02:08        1.22
  z_0871_003_011       JUNCTION     0.55     1.30    18.15     0  02:06        1.30
  z_0871_003_012       JUNCTION     0.56     1.30    18.15     0  02:10        1.30
  z_0871_003_013       JUNCTION     0.57     1.30    18.15     0  02:13        1.30
  z_0871_003_014       JUNCTION     0.58     1.30    18.15     0  02:21        1.30
  z_0871_003_015       JUNCTION     0.56     1.29    18.14     0  02:32        1.29
  z_0871_003_016       JUNCTION     0.24     1.19    18.04     0  01:48        1.19
  z_0871_003_017       JUNCTION     0.24     1.18    18.03     0  01:53        1.18
  z_0871_003_018       JUNCTION     0.15     1.19    18.04     0  01:38        1.19
  z_0871_003_022       JUNCTION     0.00     0.00    16.85     0  00:00        0.00
  z_0871_003_023       JUNCTION     0.04     1.15    18.00     0  01:31        1.15
  z_0871_003_024       JUNCTION     0.00     0.00    16.85     0  00:00        0.00
  z_0871_003_025       JUNCTION     0.00     0.00    16.85     0  00:00        0.00
  z_0871_003_026       JUNCTION     0.00     0.00    16.85     0  00:00        0.00
  z_0871_003_027       JUNCTION     0.00     0.03    16.88     0  01:31        0.03
  z_0871_003_028       JUNCTION     0.00     0.03    16.88     0  01:31        0.03
  z_0871_003_030       JUNCTION     0.21     1.16    18.01     0  01:31        1.15
  z_0871_003_031       JUNCTION     0.00     0.00    16.85     0  00:00        0.00
  z_0871_003_032       JUNCTION     0.43     1.34    18.19     0  01:50        1.34
  z_0871_003_033       JUNCTION     0.48     1.34    18.19     0  01:51        1.34
  z_0871_003_034       JUNCTION     0.51     1.32    18.17     0  01:54        1.32
  z_0871_003_035       JUNCTION     0.53     1.30    18.15     0  02:03        1.30
  z_0871_003_036       JUNCTION     0.55     1.30    18.15     0  02:06        1.30
  z_0871_003_037       JUNCTION     0.56     1.30    18.15     0  02:11        1.30
  z_0871_003_038       JUNCTION     0.00     0.00    16.85     0  00:00        0.00
  z_0871_003_039       JUNCTION     0.57     1.30    18.15     0  02:13        1.30
  z_0871_003_040       JUNCTION     0.58     1.30    18.15     0  02:21        1.30
  z_0871_003_041       JUNCTION     0.56     1.29    18.14     0  02:32        1.29
  z_0871_004_001       JUNCTION     0.16     1.16    18.01     0  01:32        1.16
  z_0871_004_002       JUNCTION     0.14     1.16    18.01     0  01:31        1.16
  z_0871_004_003       JUNCTION     0.10     1.16    18.01     0  01:35        1.16
  z_0871_004_004       JUNCTION     0.46     1.26    18.11     0  01:55        1.26
  z_0871_004_005       JUNCTION     0.10     1.15    18.00     0  01:32        1.02
  z_0871_004_006       JUNCTION     0.30     1.20    18.05     0  01:48        1.20
  z_0871_004_008       JUNCTION     0.31     1.22    18.07     0  01:51        1.22
  z_0871_004_010       JUNCTION     0.38     1.22    18.07     0  02:01        1.22
  z_0871_004_011       JUNCTION     0.07     1.15    18.00     0  01:42        1.15
  z_0871_004_020       JUNCTION     0.08     1.16    18.01     0  01:33        1.16
  z_0871_004_021       JUNCTION     0.09     1.16    18.01     0  01:33        1.15
  z_0871_004_022       JUNCTION     0.39     1.24    18.09     0  01:50        1.24
  z_0871_004_023       JUNCTION     0.06     1.15    18.00     0  01:46        0.49
  z_0871_005_001       JUNCTION     0.50     1.28    18.13     0  02:05        1.28
  z_0871_005_002       JUNCTION     0.35     1.15    18.00     0  01:30        1.15
  z_0871_005_003       JUNCTION     0.32     1.23    18.08     0  01:50        1.23
  z_0871_005_004       JUNCTION     0.56     1.32    18.17     0  01:59        1.32
  z_0871_005_005       JUNCTION     0.40     1.30    18.15     0  01:59        1.30
  z_0871_005_006       JUNCTION     0.50     1.28    18.13     0  02:05        1.28
  z_0871_005_007       JUNCTION     0.15     1.15    18.00     0  01:38        1.15
  z_0871_005_008       JUNCTION     0.47     1.27    18.12     0  01:59        1.27
  z_0871_005_009       JUNCTION     0.15     1.15    18.00     0  01:39        1.15
  z_0871_005_010       JUNCTION     0.44     1.23    18.08     0  01:55        1.23
  z_0871_005_011       JUNCTION     0.29     1.17    18.02     0  01:40        1.17
  z_0871_005_012       JUNCTION     0.40     1.19    18.04     0  01:52        1.19
  z_0871_005_013       JUNCTION     0.12     1.15    18.00     0  01:35        0.85
  z_0871_005_014       JUNCTION     0.27     1.20    18.05     0  01:47        1.20
  z_0871_005_019       JUNCTION     0.36     1.16    18.01     0  01:29        1.16
  z_0871_005_020       JUNCTION     0.54     1.33    18.18     0  01:53        1.33
  z_0871_005_021       JUNCTION     0.69     1.54    18.39     0  01:57        1.54
  z_0871_005_022       JUNCTION     0.45     1.41    18.26     0  01:52        1.41
  z_0871_005_023       JUNCTION     0.02     0.28    17.13     0  01:35        0.28
  z_0871_005_024       JUNCTION     0.15     1.09    17.94     0  01:40        1.01
  z_0871_005_025       JUNCTION     0.46     1.32    18.17     0  01:56        1.32
  z_0871_005_026       JUNCTION     0.53     1.28    18.13     0  01:56        1.28
  z_0871_005_027       JUNCTION     0.43     1.30    18.15     0  01:53        1.30
  z_0871_006_001       JUNCTION     0.35     1.19    18.04     0  01:53        1.19
  z_0871_006_002       JUNCTION     0.45     1.36    18.21     0  01:50        1.36
  z_0871_006_003       JUNCTION     0.33     1.17    18.02     0  02:08        1.17
  z_0871_006_004       JUNCTION     0.07     1.15    18.00     0  01:36        0.58
  z_0871_006_005       JUNCTION     0.34     1.17    18.02     0  02:04        1.17
  z_0871_006_007       JUNCTION     0.37     1.20    18.05     0  01:57        1.20
  z_0871_006_010       JUNCTION     0.60     1.36    18.21     0  01:54        1.36
  z_0871_006_018       JUNCTION     0.18     1.15    18.00     0  01:30        1.15
  z_0871_006_019       JUNCTION     0.07     1.15    18.00     0  01:35        0.57
  z_0871_006_020       JUNCTION     0.06     1.15    18.00     0  01:31        0.80
  z_0871_007_001       JUNCTION     0.31     1.17    18.02     0  01:49        1.17
  z_0871_007_002       JUNCTION     0.41     1.23    18.08     0  02:02        1.23
  z_0871_007_003       JUNCTION     0.39     1.34    18.19     0  01:53        1.34
  z_0871_007_007       JUNCTION     0.33     1.18    18.03     0  01:51        1.18
  z_0871_007_008       JUNCTION     0.35     1.19    18.04     0  02:01        1.19
  z_0871_007_009       JUNCTION     0.36     1.21    18.06     0  01:53        1.21
  z_0871_007_010       JUNCTION     0.39     1.35    18.20     0  01:50        1.35
  z_0871_007_011       JUNCTION     0.34     1.18    18.03     0  01:59        1.18
  z_0871_007_012       JUNCTION     0.41     1.23    18.08     0  02:05        1.23
  z_0871_007_013       JUNCTION     0.33     1.17    18.02     0  02:09        1.17
  z_0871_007_014       JUNCTION     0.31     1.17    18.02     0  01:58        1.17
  z_0871_007_015       JUNCTION     0.31     1.23    18.08     0  02:00        1.23
  z_0871_007_016       JUNCTION     0.33     1.16    18.01     0  01:50        1.16
  z_0871_007_017       JUNCTION     0.39     1.19    18.04     0  01:55        1.19
  z_0871_007_018       JUNCTION     0.41     1.21    18.06     0  02:07        1.21
  z_0871_007_019       JUNCTION     0.51     1.30    18.15     0  02:04        1.30
  z_0871_007_025       JUNCTION     0.36     1.21    18.06     0  01:54        1.21
  z_0871_007_026       JUNCTION     0.35     1.19    18.04     0  01:53        1.19
  z_0871_007_027       JUNCTION     0.65     1.47    18.32     0  02:01        1.47
  z_0871_007_028       JUNCTION     0.33     1.18    18.03     0  01:50        1.18
  z_0871_007_029       JUNCTION     0.33     1.18    18.03     0  01:48        1.18
  z_0871_007_030       JUNCTION     0.39     1.27    18.12     0  01:47        1.27
  z_0871_007_034       JUNCTION     0.56     1.29    18.14     0  02:16        1.29
  z_0871_007_035       JUNCTION     0.49     1.37    18.22     0  01:53        1.37
  z_0871_007_036       JUNCTION     0.00     0.00    16.85     0  00:00        0.00
  z_0871_007_037       JUNCTION     0.39     1.27    18.12     0  01:49        1.27
  z_0871_007_038       JUNCTION     0.49     1.37    18.22     0  01:54        1.37
  z_0871_007_039       JUNCTION     0.52     1.27    18.12     0  01:59        1.27
  z_0871_007_040       JUNCTION     0.48     1.45    18.30     0  01:52        1.45
  z_0871_007_041       JUNCTION     0.41     1.21    18.06     0  02:07        1.21
  z_0871_007_042       JUNCTION     0.32     1.18    18.03     0  01:41        1.18
  341                  OUTFALL      0.27     0.46    15.04     0  01:30        0.46
  342                  OUTFALL      0.41     0.75    14.06     0  01:31        0.75
  343                  OUTFALL      0.67     1.30    12.58     0  01:36        1.30
  346                  OUTFALL      0.53     0.90    13.56     0  01:40        0.90
  347                  OUTFALL      0.50     0.85    13.06     0  01:35        0.85
  348                  OUTFALL      0.46     0.85    12.65     0  01:31        0.85
  350                  OUTFALL      0.56     0.92    13.66     0  01:36        0.92
  
  
  *******************
  Node Inflow Summary
  *******************
  
  -------------------------------------------------------------------------------------------------
                                  Maximum  Maximum                  Lateral       Total        Flow
                                  Lateral    Total  Time of Max      Inflow      Inflow     Balance
                                   Inflow   Inflow   Occurrence      Volume      Volume       Error
  Node                 Type           LPS      LPS  days hr:min    10^6 ltr    10^6 ltr     Percent
  -------------------------------------------------------------------------------------------------
  1                    JUNCTION    138.55   138.55     0  01:30        0.34        0.34      -0.085
  2                    JUNCTION    133.22   461.76     0  01:23       0.327        2.38      -0.151
  3                    JUNCTION    114.19   354.08     0  02:20        0.28        1.27      -0.151
  4                    JUNCTION      0.00   326.43     0  02:21           0       0.699      -0.210
  5                    JUNCTION      0.00   305.31     0  02:24           0       0.419       0.385
  6                    JUNCTION    137.79   244.89     0  02:24       0.338       0.425       0.342
  7                    JUNCTION     89.83   211.42     0  01:28        0.22        0.33      -0.292
  8                    JUNCTION      0.00   341.72     0  01:28           0       0.731      -0.649
  9                    JUNCTION    296.13   296.13     0  01:30       0.727       0.727      -0.019
  10                   JUNCTION    111.14   111.14     0  01:30       0.273       0.273       0.234
  11                   JUNCTION    138.55   197.51     0  02:09        0.34       0.684      -0.067
  12                   JUNCTION    260.35   273.02     0  01:22       0.639        0.78      -0.250
  13                   JUNCTION    160.62   221.26     0  01:22       0.394       0.587      -0.226
  14                   JUNCTION      0.00   136.08     0  02:06           0       0.169       0.131
  15                   JUNCTION    150.73   215.32     0  01:24        0.37       0.441       0.192
  16                   JUNCTION      0.00   141.41     0  01:24           0       0.124       1.730
  17                   JUNCTION      0.00   114.83     0  01:34           0      0.0708       0.397
  18                   JUNCTION    140.07   140.07     0  01:30       0.344       0.344       0.748
  19                   JUNCTION      0.00    96.47     0  01:29           0      0.0326      -1.888
  20                   JUNCTION     76.12    96.51     0  01:29       0.187       0.211      -0.004
  21                   JUNCTION    131.70   165.52     0  01:30       0.323       0.665       0.380
  22                   JUNCTION      0.00   114.65     0  01:34           0       0.104       1.126
  23                   JUNCTION      0.00   164.07     0  01:24           0       0.114       1.533
  24                   JUNCTION      0.00   109.81     0  01:20           0       0.275       0.227
  25                   JUNCTION    145.40   161.66     0  01:21       0.357        0.43       1.150
  26                   JUNCTION    188.79   244.97     0  01:23       0.463       0.922      -0.340
  27                   JUNCTION    165.95   341.66     0  01:24       0.407       0.962       0.767
  28                   JUNCTION      0.00   118.10     0  01:23           0       0.547      -0.406
  29                   JUNCTION    178.89   259.49     0  01:28       0.439       0.988       0.289
  30                   JUNCTION      0.00  1176.32     0  01:23           0         4.5       0.222
  31                   JUNCTION    267.96   675.47     0  01:23       0.657        2.64      -0.026
  32                   JUNCTION      0.00   258.75     0  02:03           0        1.05      -0.525
  33                   JUNCTION    143.11   194.03     0  01:24       0.351       0.705       0.075
  34                   JUNCTION      0.00   151.84     0  01:24           0       0.192       0.710
  35                   JUNCTION      0.00   198.28     0  01:34           0       0.195       0.417
  36                   JUNCTION      0.00   164.37     0  01:20           0       0.733      -0.192
  37                   JUNCTION     76.12   134.09     0  01:29       0.187       0.376      -0.140
  38                   JUNCTION    143.88   413.36     0  01:29       0.353       0.899      -1.084
  39                   JUNCTION    257.30   331.28     0  01:24       0.631       0.787       0.964
  40                   JUNCTION    153.77   188.67     0  01:22       0.377        1.04       0.201
  41                   JUNCTION      0.00   235.67     0  01:33           0       0.319      -0.326
  42                   JUNCTION      0.00   205.84     0  01:26           0       0.415       1.123
  43                   JUNCTION    357.79   357.79     0  01:30       0.878        1.21      -1.122
  44                   JUNCTION      0.00  1217.82     0  01:26           0        5.46      -0.191
  45                   JUNCTION      0.00   440.29     0  01:30           0        1.31       0.432
  46                   JUNCTION    114.19   351.92     0  01:26        0.28       0.993       0.745
  47                   JUNCTION      0.00  1762.06     0  01:26           0        7.84      -0.050
  48                   JUNCTION      0.00   248.86     0  01:28           0        1.05      -0.684
  49                   JUNCTION      0.00   149.84     0  01:28           0       0.452      -0.431
  50                   JUNCTION    220.76   226.40     0  01:30       0.542       0.594       0.119
  51                   JUNCTION    395.09   444.31     0  01:30       0.969        1.85       0.108
  52                   JUNCTION      0.00   280.29     0  01:30           0       0.726      -0.845
  53                   JUNCTION    354.74   611.64     0  01:30        0.87        1.78      -0.114
  54                   JUNCTION    118.75  4920.57     0  01:33       0.291          16      -0.053
  55                   JUNCTION      0.00  5032.57     0  01:33           0        16.8      -0.005
  56                   JUNCTION    510.04  5717.21     0  01:29        1.25        19.8       0.044
  57                   JUNCTION      0.00  6543.35     0  01:33           0        26.7       0.023
  58                   JUNCTION    200.97   200.97     0  01:30       0.493       0.494       1.527
  59                   JUNCTION      0.00   238.90     0  01:25           0       0.926      -0.447
[...]
  76                          1.40      1.40      1.42      0.65         0.65
  422                         1.22      1.22      1.30      0.01         0.01
  419                         0.42      0.42      0.77      0.01         0.01
  446                         0.89      0.89      1.05      0.01         0.01
  440                         0.97      0.97      1.11      0.01         0.01
  198                         1.44      1.44      1.55      0.07         0.01
  74                          1.33      1.37      1.47      0.43         0.37
  426                         0.78      0.78      1.02      0.01         0.01
  439                         0.27      0.27      0.52      0.01         0.01
  229                         0.49      0.49      0.74      0.01         0.01
  385                         1.33      1.33      1.37      0.03         0.04
  428                         0.93      0.93      1.08      0.01         0.01
  75                          1.03      1.03      1.42      0.02         0.01
  228                         0.31      0.31      0.49      0.01         0.01
  387                         0.89      0.89      1.03      0.01         0.01
  158                         0.01      1.00      0.01      1.56         0.01
  163                         0.43      1.92      0.43      2.03         0.43
  156                         0.72      0.72      1.00      0.01         0.01
  153                         0.59      0.59      0.61      0.50         0.43
  152                         0.38      0.38      0.59      0.01         0.01
  149                         0.04      0.54      0.04      0.63         0.04
  161                         0.01      0.65      0.01      0.72         0.01
  155                         0.72      2.12      0.72      2.34         0.72
  169                         1.91      1.94      1.92      1.97         1.90
  148                         0.30      0.30      0.54      0.05         0.06
  151                         0.38      0.67      0.38      0.96         0.38
  154                         2.12      2.25      2.12      2.35         2.12
  160                         0.40      0.40      0.65      0.19         0.19
  464                         0.01      0.01      0.28      0.01         0.01
  167                         1.89      1.89      1.94      1.72         1.72
  147                         0.07      0.07      0.30      0.01         0.01
  150                         0.67      1.44      0.67      1.50         0.67
  456                         0.01      0.01      4.37      0.01         0.01
  159                         1.63      1.77      1.71      1.55         1.37
  87                          2.22      2.22      2.25      2.06         2.04
  457                         0.01      0.01      0.40      0.01         0.01
  459                         0.01      0.01      4.55      0.01         0.01
  166                         1.80      1.80      1.89      1.08         1.08
  145                         0.55      0.55      0.73      0.03         0.01
  88                          1.33      1.33      1.44      1.06         1.05
  86                          0.93      1.09      1.09      0.54         0.35
  48                          2.15      2.15      2.22      1.51         1.50
  454                         0.41      0.41      1.05      0.01         0.01
  164                         1.65      1.65      1.77      0.24         0.24
  172                         1.78      1.78      1.80      1.25         1.18
  165                         1.30      1.30      1.56      0.01         0.01
  455                         0.67      0.67      0.77      0.01         0.01
  49                          1.13      1.13      1.33      0.01         0.01
  487                         0.22      0.22      0.49      0.01         0.01
  472                         0.21      0.21      0.53      0.01         0.01
  443                         1.11      1.11      1.24      0.01         0.01
  47                          2.12      2.12      2.15      0.59         0.59
  23                          1.41      1.41      1.80      0.08         0.01
  452                         0.83      0.83      1.09      0.01         0.01
  170                         1.35      1.35      1.44      0.01         0.01
  85                          1.51      1.51      1.65      1.05         1.02
  460                         1.12      1.12      1.30      0.01         0.01
  175                         1.67      1.67      1.78      0.01         0.01
  171                         1.48      1.48      1.65      0.01         0.01
  444                         0.76      0.76      0.82      0.01         0.01
  22                          0.73      0.73      1.08      0.02         0.01
  530                         0.99      0.99      1.38      0.01         0.01
  504                         1.03      1.03      1.18      0.01         0.01
  453                         1.13      1.13      1.48      0.01         0.01
  45                          2.10      2.10      2.12      0.41         0.42
  25                          1.20      1.20      1.58      0.01         0.01
  84                          1.43      1.43      1.51      0.01         0.02
  450                         0.50      0.50      1.16      0.01         0.01
  173                         1.16      1.16      1.35      0.01         0.01
  461                         1.19      1.19      1.48      0.01         0.01
  467                         1.35      1.35      1.44      0.01         0.01
  174                         1.56      1.56      1.67      0.38         0.35
  503                         0.72      0.72      0.73      0.01         0.01
  505                         1.11      1.11      1.20      0.01         0.01
  451                         1.22      1.22      1.52      0.01         0.01
  44                          2.05      2.05      2.10      0.19         0.19
  26                          1.51      1.51      1.89      0.09         0.01
  83                          1.37      1.37      1.43      0.01         0.01
  465                         0.51      0.51      0.85      0.01         0.01
  448                         0.50      0.50      1.12      0.01         0.01
  462                         1.47      1.47      1.56      0.01         0.01
  529                         1.12      1.12      1.48      0.01         0.01
  506                         1.15      1.15      1.29      0.01         0.01
  449                         1.24      1.24      1.55      0.01         0.01
  43                          1.61      1.61      1.76      0.01         0.02
  27                          1.87      1.87      2.05      0.01         0.01
  82                          1.30      1.30      1.37      0.01         0.01
  507                         1.28      1.28      1.35      0.01         0.01
  338                         1.60      1.60      1.87      0.01         0.02
  447                         1.23      1.23      1.55      0.01         0.01
  442                         1.21      1.21      1.61      0.01         0.01
  445                         1.26      1.26      1.30      0.01         0.01
  313                         1.50      1.50      1.60      0.01         0.01
  252                         1.30      1.30      1.44      0.01         0.02
  373                         1.28      1.28      1.50      0.01         0.01
  253                         1.30      1.30      1.45      0.01         0.02
  136                         0.01      0.12      0.01      0.86         0.01
  137                         0.29      1.04      0.29      1.13         0.29
  134                         0.12      0.46      0.12      1.11         0.12
  128                         0.01      1.02      0.01      1.33         0.01
  129                         0.01      0.52      0.01      0.55         0.01
  127                         1.02      2.09      1.02      2.13         1.02
  133                         0.54      1.83      0.54      1.94         0.54
  144                         0.88      0.88      1.04      0.01         0.01
  138                         0.60      0.60      0.70      0.38         0.34
  126                         1.38      1.38      1.53      0.01         0.01
  120                         2.01      2.01      2.09      1.69         1.69
  481                         0.01      0.01      0.32      0.01         0.01
  131                         0.35      0.37      0.52      0.06         0.04
  132                         1.81      1.82      1.83      1.69         1.66
  139                         0.53      0.53      0.60      0.01         0.01
  488                         0.19      0.19      0.33      0.01         0.01
  143                         0.58      0.58      0.85      0.01         0.01
  121                         1.17      1.17      1.47      0.01         0.01
  119                         1.96      1.97      2.01      1.22         1.21
  125                         1.21      1.21      1.38      0.03         0.01
  483                         0.37      0.37      0.51      0.01         0.01
  140                         0.98      0.99      1.00      0.89         0.89
  130                         1.18      1.72      1.18      1.65         1.06
  93                          1.82      2.27      1.82      2.15         1.66
  142                         0.40      0.40      0.58      0.01         0.01
  272                         1.29      1.29      1.44      0.01         0.01
  118                         1.59      1.59      1.81      0.01         0.01
  111                         1.88      1.88      1.97      0.43         0.44
  479                         0.83      0.84      1.17      0.01         0.01
  482                         0.37      0.37      1.18      0.48         0.01
  122                         0.84      0.84      1.05      0.01         0.01
  94                          0.99      0.99      1.07      0.09         0.06
  92                          1.32      1.46      1.38      0.24         0.06
  53                          2.12      2.12      2.27      0.68         0.57
  123                         1.65      1.65      1.72      0.52         0.52
  95                          1.11      1.11      1.29      0.01         0.01
  484                         0.21      0.21      4.54      0.01         0.01
  476                         0.52      0.52      0.89      0.01         0.01
  141                         0.90      0.90      0.99      0.03         0.01
  114                         1.49      1.49      1.62      0.01         0.01
  110                         1.66      1.66      1.87      0.01         0.01
  117                         1.42      1.42      1.59      0.01         0.01
  469                         0.99      0.99      1.12      0.01         0.01
  52                          2.07      2.07      2.12      0.07         0.08
  18                          0.99      0.99      1.48      0.01         0.01
  91                          1.33      1.33      1.46      0.01         0.02
  477                         0.99      0.99      1.11      0.01         0.01
  480                         0.52      0.52      4.65      0.01         0.01
  98                          1.58      1.58      1.65      0.89         0.88
  486                         0.57      0.58      0.72      0.01         0.01
  485                         0.40      0.40      0.85      0.02         0.01
  474                         0.55      0.55      0.90      0.01         0.01
  109                         1.45      1.45      1.66      0.01         0.01
  478                         1.36      1.36      1.49      0.01         0.01
  527                         1.25      1.25      1.42      0.01         0.01
  499                         0.94      0.94      0.99      0.01         0.01
  475                         0.97      0.97      1.45      0.01         0.01
  51                          2.00      2.00      2.07      0.25         0.01
  19                          1.45      1.45      1.87      0.01         0.01
  89                          1.22      1.22      1.33      0.44         0.44
  97                          1.51      1.51      1.58      0.38         0.38
  522                         1.38      1.38      1.45      0.01         0.01
  500                         0.98      0.98      1.21      0.01         0.01
  490                         0.97      0.97      1.42      0.01         0.01
  473                         0.90      0.90      1.43      0.01         0.01
  50                          1.88      1.88      2.00      0.07         0.01
  20                          0.97      0.97      1.59      0.01         0.01
  470                         1.09      1.09      1.22      0.01         0.01
  96                          1.45      1.45      1.51      0.16         0.16
  501                         0.89      0.89      0.97      0.01         0.01
  471                         0.86      0.86      1.43      0.01         0.01
  21                          1.33      1.33      1.80      0.01         0.01
  515                         1.42      1.42      1.45      0.02         0.03
  502                         0.83      0.83      1.06      0.01         0.01
  489                         0.79      0.79      1.30      0.01         0.01
  104                         0.01      1.22      0.01      1.68         0.01
  105                         1.22      1.75      1.22      1.86         1.22
  64                          0.01      1.11      0.01      1.44         0.01
  65                          1.11      1.21      1.11      1.40         1.11
  1                           0.01      0.11      0.01      0.22         0.01
  106                         0.01      0.01      0.11      0.01         0.01
  103                         1.74      1.80      1.75      1.83         1.72
  66                          1.21      1.24      1.21      1.40         1.21
  508                         0.01      0.01      4.54      0.01         0.01
  107                         1.04      1.04      1.35      0.03         0.04
  102                         1.41      1.44      1.46      1.25         1.14
  62                          1.79      1.90      1.80      0.65         0.41
  67                          1.24      1.25      1.24      1.40         1.24
  510                         0.01      0.01      4.56      0.01         0.01
  61                          1.89      1.95      1.90      0.55         0.43
  108                         0.90      0.90      1.09      0.09         0.08
  100                         1.39      1.39      1.44      0.43         0.40
  521                         0.01      0.01      4.58      0.01         0.01
  236                         0.12      0.12      0.38      0.01         0.01
  69                          1.25      1.28      1.25      1.46         1.25
  511                         0.01      0.01      4.56      0.01         0.01
  60                          1.94      1.96      1.95      1.12         1.01
  116                         1.26      1.26      1.39      0.01         0.02
  99                          1.24      1.24      1.36      0.01         0.01
  237                         0.40      0.40      0.68      0.01         0.01
  12                          1.28      1.29      1.28      1.42         1.28
  520                         0.68      0.68      4.57      0.01         0.01
  512                         0.01      0.01      4.56      0.01         0.01
  59                          1.92      1.92      1.96      0.25         0.23
  525                         0.96      0.96      1.22      0.01         0.01
  518                         0.98      0.98      1.17      0.01         0.01
  115                         1.15      1.15      1.26      0.33         0.34
  14                          1.16      1.17      1.19      0.92         0.86
  11                          1.28      1.28      1.29      1.21         1.10
  519                         0.70      0.70      4.58      0.01         0.01
  493                         0.01      0.01      4.57      0.01         0.01
  58                          1.88      1.88      1.92      0.04         0.04
  526                         1.06      1.06      1.15      0.01         0.01
  523                         1.06      1.06      1.12      0.01         0.01
  10                          1.28      1.28      1.28      1.16         1.10
  15                          1.13      1.15      1.17      0.21         0.17
  517                         0.88      0.88      1.31      0.01         0.01
  494                         0.44      0.44      4.56      0.01         0.01
  56                          1.84      1.85      1.88      0.24         0.09
  238                         0.82      0.82      0.95      0.01         0.01
  9                           1.27      1.27      1.28      1.14         1.07
  492                         0.59      0.59      4.60      0.01         0.01
  16                          1.11      1.11      1.15      0.15         0.13
  516                         0.84      0.84      1.31      0.01         0.01
  495                         0.84      0.84      1.47      0.01         0.01
  55                          1.80      1.80      1.85      0.03         0.02
  239                         0.88      0.88      0.99      0.01         0.01
  8                           1.26      1.26      1.27      0.76         0.72
  17                          1.01      1.01      1.11      0.27         0.26
  514                         0.83      0.83      1.30      0.01         0.01
  496                         0.82      0.82      1.50      0.01         0.01
  54                          1.54      1.54      1.80      0.01         0.01
  240                         0.92      0.92      1.01      0.01         0.01
  7                           1.25      1.25      1.26      0.63         0.62
  498                         0.84      0.84      0.90      0.01         0.01
  491                         0.83      0.83      1.00      0.01         0.01
  513                         0.83      0.83      1.30      0.01         0.01
  497                         0.80      0.80      1.51      0.01         0.01
  241                         0.95      0.95      1.02      0.01         0.01
  6                           1.24      1.24      1.25      0.52         0.49
  242                         0.98      0.99      1.03      0.08         0.02
  5                           1.23      1.23      1.24      0.35         0.31
  243                         0.99      1.08      1.04      0.32         0.20
  4                           1.21      1.21      1.23      0.01         0.01
  244                         0.98      0.98      1.05      0.01         0.01
  3                           1.19      1.19      1.21      0.01         0.02
  343                         1.17      1.17      1.19      0.01         0.02
  245                         0.99      0.99      1.05      0.01         0.01
  342                         1.15      1.15      1.17      0.01         0.01
  247                         1.02      1.05      1.05      0.17         0.11
  341                         1.13      1.13      1.15      0.01         0.01
  248                         1.04      1.11      1.05      0.22         0.13
  340                         1.08      1.08      1.13      0.01         0.01
  249                         1.05      1.10      1.05      0.20         0.12
  339                         1.05      1.05      1.08      0.01         0.01
  250                         0.99      0.99      1.06      0.07         0.06
  528                         0.99      0.99      1.02      0.06         0.05
  251                         1.01      1.01      1.05      0.07         0.06
  

  Analysis begun on:  Wed Dec 22 20:09:49 2021
  Analysis ended on:  Wed Dec 22 20:09:50 2021
  Total elapsed time: 00:00:01