
  EPA STORM WATER MANAGEMENT MODEL - VERSION 5.1 (Build 5.3.0.dev0)
  --------------------------------------------------------------

  
  *********************************************************
  NOTE: The summary statistics displayed in this report are
  based on results found at every computational time step,  
  not just on results from each reporting time step.
  *********************************************************
  
  ****************
  Analysis Options
  ****************
  Flow Units ............... CMS
  Process Models:
    Rainfall/Runoff ........ YES
    RDII ................... NO
    Snowmelt ............... NO
    Groundwater ............ NO
    Flow Routing ........... YES
    Ponding Allowed ........ YES
    Water Quality .......... NO
  Infiltration Method ...... HORTON
  Flow Routing Method ...... DYNWAVE
  Surcharge Method ......... EXTRAN
  Starting Date ............ 12/15/2017 00:00:00
  Ending Date .............. 12/15/2017 06:00:00
  Antecedent Dry Days ...... 0.0
  Report Time Step ......... 00:01:00
  Wet Time Step ............ 00:01:00
  Dry Time Step ............ 06:00:00
  Routing Time Step ........ 30.00 sec
  Variable Time Step ....... YES
  Maximum Trials ........... 8
  Number of Threads ........ 1
  Head Tolerance ........... 0.001500 m
  
  
  **************************        Volume         Depth
  Runoff Quantity Continuity     hectare-m            mm
  **************************     ---------       -------
  Total Precipitation ......        11.436        23.286
  Evaporation Loss .........         0.000         0.000
  Infiltration Loss ........         1.331         2.710
  Surface Runoff ...........         8.976        18.277
  Final Storage ............         1.130         2.300
  Continuity Error (%) .....        -0.011
  
  
  **************************        Volume        Volume
  Flow Routing Continuity        hectare-m      10^6 ltr
  **************************     ---------     ---------
  Dry Weather Inflow .......         0.000         0.000
  Wet Weather Inflow .......         8.977        89.771
  Groundwater Inflow .......         0.000         0.000
  RDII Inflow ..............         0.000         0.000
  External Inflow ..........         0.000         0.000
  External Outflow .........         8.922        89.225
  Flooding Loss ............         0.000         0.000
  Evaporation Loss .........         0.000         0.000
  Exfiltration Loss ........         0.000         0.000
  Initial Stored Volume ....         0.000         0.000
  Final Stored Volume ......         0.047         0.473
  Continuity Error (%) .....         0.081
  
  
  *************************
  Highest Continuity Errors
  *************************
  Node 247 (-14.48%)
  Node 302 (7.24%)
  Node 24 (4.65%)
  Node 110 (-3.88%)
  Node 43 (3.15%)
  
  
  ***************************
  Time-Step Critical Elements
  ***************************
  Link 26 (41.31%)
  Link 223 (9.67%)
  Link 163 (9.01%)
  Link 123 (4.13%)
  Link 302 (1.78%)
  
  
  ********************************
  Highest Flow Instability Indexes
  ********************************
  Link 83 (25)
  Link 86 (23)
  Link 84 (21)
  Link 343 (21)
  Link 85 (21)
  
  
  *************************
  Routing Time Step Summary
  *************************
  Minimum Time Step           :     0.50 sec
  Average Time Step           :    10.20 sec
  Maximum Time Step           :    30.00 sec
  Percent in Steady State     :     0.60
  Average Iterations per Step :     5.10
  Percent Not Converging      :    39.48
  
  
  ***************************
  Subcatchment Runoff Summary
  ***************************
  
  ------------------------------------------------------------------------------------------------------------------------------
                            Total      Total      Total      Total     Imperv       Perv      Total       Total     Peak  Runoff
                           Precip      Runon       Evap      Infil     Runoff     Runoff     Runoff      Runoff   Runoff   Coeff
  Subcatchment                 mm         mm         mm         mm         mm         mm         mm    10^6 ltr      CMS
  ------------------------------------------------------------------------------------------------------------------------------
  532                       23.29       0.00       0.00       2.46      17.57       1.12      18.69        0.39     0.16   0.803
  533                       23.29       0.00       0.00       2.46      17.57       1.12      18.69        0.27     0.11   0.803
  534                       23.29       0.00       0.00       2.46      17.57       1.12      18.69        0.31     0.12   0.803
  535                       23.29       0.00       0.00       2.46      17.57       1.12      18.69        0.37     0.15   0.803
  536                       23.29       0.00       0.00       2.46      17.57       1.12      18.69        0.35     0.14   0.803
  537                       23.29       0.00       0.00       2.46      17.57       1.12      18.69        0.34     0.14   0.803
  538                       23.29       0.00       0.00       2.46      17.57       1.12      18.69        0.33     0.14   0.803
  539                       23.29       0.00       0.00       2.46      17.57       1.12      18.69        0.32     0.13   0.803
  540                       23.29       0.00       0.00       2.46      17.57       1.12      18.69        0.60     0.24   0.803
  541                       23.29       0.00       0.00       2.46      17.57       1.12      18.69        0.58     0.24   0.803
  542                       23.29       0.00       0.00       2.46      17.57       1.12      18.69        0.28     0.12   0.803
  543                       23.29       0.00       0.00       2.46      17.57       1.12      18.69        0.47     0.19   0.803
  544                       23.29       0.00       0.00       2.46      17.57       1.12      18.69        1.08     0.44   0.803
  545                       23.29       0.00       0.00       2.46      17.57       1.12      18.69        0.44     0.18   0.803
  546                       23.29       0.00       0.00       2.46      17.57       1.12      18.69        0.43     0.18   0.803
  547                       23.29       0.00       0.00       2.46      17.57       1.12      18.69        0.38     0.15   0.803
  548                       23.29       0.00       0.00       2.46      17.57       1.12      18.69        0.31     0.12   0.803
  549                       23.29       0.00       0.00       2.46      17.57       1.12      18.69        0.43     0.18   0.803
  550                       23.29       0.00       0.00       2.46      17.57       1.12      18.69        0.44     0.18   0.803
  551                       23.29       0.00       0.00       2.46      17.57       1.12      18.69        0.21     0.09   0.803
  552                       23.29       0.00       0.00       2.46      17.57       1.12      18.69        0.22     0.09   0.803
  553                       23.29       0.00       0.00       2.46      17.57       1.12      18.69        0.21     0.09   0.803
  554                       23.29       0.00       0.00       2.46      17.57       1.12      18.69        0.21     0.09   0.803
  555                       23.29       0.00       0.00       2.46      17.57       1.12      18.69        0.21     0.09   0.803
  556                       23.29       0.00       0.00       2.46      17.57       1.12      18.69        0.21     0.09   0.803
  557                       23.29       0.00       0.00       2.46      17.57       1.12      18.69        0.21     0.09   0.803
  558                       23.29       0.00       0.00       2.46      17.57       1.12      18.69        0.43     0.17   0.803
  559                       23.29       0.00       0.00       2.46      17.57       1.12      18.69        0.22     0.09   0.803
  560                       23.29       0.00       0.00       2.46      17.57       1.12      18.69        0.41     0.17   0.803
  561                       23.29       0.00       0.00       2.46      17.57       1.12      18.69        0.43     0.18   0.803
  562                       23.29       0.00       0.00       2.46      17.57       1.12      18.69        0.37     0.15   0.803
  563                       23.29       0.00       0.00       2.46      17.57       1.12      18.69        0.67     0.27   0.803
  564                       23.29       0.00       0.00       2.46      17.57       1.12      18.69        0.63     0.26   0.803
  565                       23.29       0.00       0.00       2.46      17.57       1.12      18.69        0.60     0.25   0.803
  566                       23.29       0.00       0.00       2.46      17.57       1.12      18.69        0.53     0.22   0.803
  567                       23.29       0.00       0.00       2.46      17.57       1.12      18.69        0.48     0.19   0.803
  568                       23.29       0.00       0.00       2.46      17.57       1.12      18.69        0.43     0.18   0.803
  569                       23.29       0.00       0.00       2.46      17.57       1.12      18.69        0.44     0.18   0.803
  570                       23.29       0.00       0.00       2.46      17.57       1.12      18.69        0.38     0.15   0.803
  571                       23.29       0.00       0.00       2.46      17.57       1.12      18.69        0.66     0.27   0.803
  572                       23.29       0.00       0.00       2.46      17.57       1.12      18.69        0.31     0.12   0.803
  573                       23.29       0.00       0.00       2.46      17.57       1.12      18.69        0.30     0.12   0.803
  574                       23.29       0.00       0.00       2.46      17.57       1.12      18.69        0.29     0.12   0.803
  575                       23.29       0.00       0.00       2.46      17.57       1.12      18.69        0.27     0.11   0.803
  576                       23.29       0.00       0.00       2.46      17.57       1.12      18.69        0.26     0.11   0.803
  577                       23.29       0.00       0.00       2.46      17.57       1.12      18.69        0.24     0.10   0.803
  578                       23.29       0.00       0.00       2.46      17.57       1.12      18.69        0.24     0.10   0.803
  579                       23.29       0.00       0.00       2.46      17.57       1.12      18.69        0.45     0.18   0.803
  580                       23.29       0.00       0.00       2.46      17.57       1.12      18.69        0.21     0.08   0.803
  581                       23.29       0.00       0.00       2.46      17.57       1.12      18.69        0.37     0.15   0.803
  582                       23.29       0.00       0.00       2.46      17.57       1.12      18.69        0.33     0.14   0.803
  583                       23.29       0.00       0.00       2.46      17.57       1.12      18.69        0.57     0.23   0.803
  584                       23.29       0.00       0.00       2.46      17.57       1.12      18.69        0.56     0.23   0.803
  585                       23.29       0.00       0.00       2.46      17.57       1.12      18.69        0.49     0.20   0.803
  586                       23.29       0.00       0.00       2.46      17.57       1.12      18.69        0.36     0.15   0.803
  587                       23.29       0.00       0.00       2.46      17.57       1.12      18.69        0.35     0.14   0.803
  588                       23.29       0.00       0.00       2.46      17.57       1.12      18.69        0.36     0.14   0.803
  589                       23.29       0.00       0.00       2.46      17.57       1.12      18.69        0.35     0.14   0.803
  590                       23.29       0.00       0.00       2.46      17.57       1.12      18.69        0.35     0.14   0.803
  591                       23.29       0.00       0.00       2.46      17.57       1.12      18.69        0.36     0.15   0.803
  592                       23.29       0.00       0.00       2.46      17.57       1.12      18.69        0.36     0.15   0.803
  593                       23.29       0.00       0.00       2.46      17.57       1.12      18.69        0.37     0.15   0.803
  594                       23.29       0.00       0.00       2.46      17.57       1.12      18.69        0.36     0.15   0.803
  595                       23.29       0.00       0.00       2.46      17.57       1.12      18.69        0.37     0.15   0.803
  596                       23.29       0.00       0.00       2.46      17.57       1.12      18.69        0.37     0.15   0.803
  597                       23.29       0.00       0.00       2.46      17.57       1.12      18.69        0.37     0.15   0.803
  598                       23.29       0.00       0.00       2.46      17.57       1.12      18.69        0.38     0.16   0.803
  599                       23.29       0.00       0.00       2.46      17.57       1.12      18.69        0.39     0.16   0.803
  600                       23.29       0.00       0.00       2.46      17.57       1.12      18.69        0.38     0.16   0.803
  601                       23.29       0.00       0.00       2.46      17.57       1.12      18.69        0.40     0.16   0.803
  602                       23.29       0.00       0.00       2.46      17.57       1.12      18.69        0.39     0.16   0.803
  603                       23.29       0.00       0.00       2.46      17.57       1.12      18.69        0.40     0.16   0.803
  604                       23.29       0.00       0.00       2.46      17.57       1.12      18.69        0.41     0.17   0.803
  605                       23.29       0.00       0.00       2.46      17.57       1.12      18.69        0.38     0.15   0.803
  606                       23.29       0.00       0.00       2.46      17.57       1.12      18.69        0.39     0.16   0.803
  607                       23.29       0.00       0.00       2.46      17.57       1.12      18.69        0.40     0.16   0.803
  608                       23.29       0.00       0.00       2.46      17.57       1.12      18.69        0.51     0.21   0.803
  609                       23.29       0.00       0.00       2.46      17.57       1.12      18.69        0.52     0.21   0.803
  610                       23.29       0.00       0.00       2.46      17.57       1.12      18.69        0.40     0.16   0.803
  611                       23.29       0.00       0.00       2.46      17.57       1.12      18.69        0.40     0.16   0.803
  612                       23.29       0.00       0.00       2.46      17.57       1.12      18.69        0.43     0.18   0.803
  613                       23.29       0.00       0.00       2.46      17.57       1.12      18.69        0.34     0.14   0.803
  614                       23.29       0.00       0.00       2.46      17.57       1.12      18.69        0.54     0.22   0.803
  615                       23.29       0.00       0.00       2.46      17.57       1.12      18.69        0.67     0.27   0.803
  616                       23.29       0.00       0.00       2.46      17.57       1.12      18.69        0.34     0.14   0.803
  617                       23.29       0.00       0.00       2.46      17.57       1.12      18.69        0.33     0.14   0.803
  618                       23.29       0.00       0.00       2.46      17.57       1.12      18.69        0.34     0.14   0.803
  619                       23.29       0.00       0.00       2.46      17.57       1.12      18.69        0.34     0.14   0.803
  620                       23.29       0.00       0.00       2.46      17.57       1.12      18.69        0.33     0.14   0.803
  621                       23.29       0.00       0.00       2.46      17.57       1.12      18.69        0.34     0.14   0.803
  622                       23.29       0.00       0.00       2.46      17.57       1.12      18.69        0.33     0.14   0.803
  623                       23.29       0.00       0.00       2.46      17.57       1.12      18.69        0.34     0.14   0.803
  624                       23.29       0.00       0.00       2.46      17.57       1.12      18.69        0.34     0.14   0.803
  625                       23.29       0.00       0.00       2.46      17.57       1.12      18.69        0.34     0.14   0.803
  626                       23.29       0.00       0.00       2.46      17.57       1.12      18.69        0.34     0.14   0.803
  627                       23.29       0.00       0.00       2.46      17.57       1.12      18.69        0.34     0.14   0.803
  628                       23.29       0.00       0.00       2.46      17.57       1.12      18.69        0.34     0.14   0.803
  629                       23.29       0.00       0.00       2.46      17.57       1.12      18.69        0.35     0.14   0.803
  630                       23.29       0.00       0.00       2.46      17.57       1.12      18.69        0.33     0.13   0.803
  631                       23.29       0.00       0.00       2.46      17.57       1.12      18.69        0.34     0.14   0.803
  632                       23.29       0.00       0.00       2.46      17.57       1.12      18.69        0.34     0.14   0.803
  633                       23.29       0.00       0.00       2.46      17.57       1.12      18.69        0.36     0.15   0.803
  634                       23.29       0.00       0.00       2.46      17.57       1.12      18.69        0.33     0.14   0.803
  635                       23.29       0.00       0.00       2.46      17.57       1.12      18.69        0.33     0.14   0.803
  636                       23.29       0.00       0.00       2.46      17.57       1.12      18.69        0.32     0.13   0.803
  637                       23.29       0.00       0.00       2.46      17.57       1.12      18.69        0.36     0.15   0.803
  638                       23.29       0.00       0.00       2.46      17.57       1.12      18.69        0.54     0.22   0.803
  639                       23.29       0.00       0.00       2.46      17.57       1.12      18.69        0.42     0.17   0.803
  640                       23.29       0.00       0.00       2.46      17.57       1.12      18.69        0.34     0.14   0.803
  641                       23.29       0.00       0.00       2.46      17.57       1.12      18.69        0.59     0.24   0.803
  642                       23.29       0.00       0.00       2.46      17.57       1.12      18.69        0.33     0.13   0.803
  643                       23.29       0.00       0.00       2.46      17.57       1.12      18.69        0.33     0.14   0.803
  644                       23.29       0.00       0.00       2.46      17.57       1.12      18.69        0.33     0.14   0.803
  645                       23.29       0.00       0.00       2.46      17.57       1.12      18.69        0.33     0.13   0.803
  646                       23.29       0.00       0.00       2.46      17.57       1.12      18.69        0.33     0.13   0.803
  647                       23.29       0.00       0.00       2.46      17.57       1.12      18.69        0.33     0.13   0.803
  648                       23.29       0.00       0.00       2.46      17.57       1.12      18.69        0.33     0.13   0.803
  649                       23.29       0.00       0.00       2.46      17.57       1.12      18.69        0.33     0.13   0.803
  650                       23.29       0.00       0.00       2.46      17.57       1.12      18.69        0.32     0.13   0.803
  651                       23.29       0.00       0.00       2.46      17.57       1.12      18.69        0.33     0.13   0.803
  652                       23.29       0.00       0.00       2.46      17.57       1.12      18.69        0.33     0.13   0.803
  653                       23.29       0.00       0.00       2.46      17.57       1.12      18.69        0.33     0.13   0.803
  654                       23.29       0.00       0.00       2.46      17.57       1.12      18.69        0.33     0.13   0.803
  655                       23.29       0.00       0.00       2.46      17.57       1.12      18.69        0.33     0.13   0.803
  656                       23.29       0.00       0.00       2.46      17.57       1.12      18.69        0.33     0.13   0.803
  657                       23.29       0.00       0.00       2.46      17.57       1.12      18.69        0.33     0.13   0.803
  658                       23.29       0.00       0.00       2.46      17.57       1.12      18.69        0.33     0.13   0.803
  659                       23.29       0.00       0.00       2.46      17.57       1.12      18.69        0.33     0.13   0.803
  660                       23.29       0.00       0.00       2.46      17.57       1.12      18.69        0.33     0.13   0.803
  661                       23.29       0.00       0.00       2.46      17.57       1.12      18.69        0.33     0.14   0.803
  662                       23.29       0.00       0.00       2.46      17.57       1.12      18.69        0.50     0.20   0.803
  663                       23.29       0.00       0.00       2.46      17.57       1.12      18.69        0.33     0.14   0.803
  664                       23.29       0.00       0.00       2.46      17.57       1.12      18.69        1.57     0.64   0.803
  665                       23.29       0.00       0.00       2.46      17.57       1.12      18.69        1.42     0.58   0.803
  666                       23.29       0.00       0.00       2.46      17.57       1.12      18.69        1.12     0.46   0.803
  667                       23.29       0.00       0.00       2.46      17.57       1.12      18.69        0.60     0.24   0.803
  668                       23.29       0.00       0.00       2.46      17.57       1.12      18.69        0.49     0.20   0.803
  669                       23.29       0.00       0.00       2.46      17.57       1.12      18.69        0.50     0.20   0.803
  670                       23.29       0.00       0.00       2.46      17.57       1.12      18.69        0.49     0.20   0.803
  671                       23.29       0.00       0.00       2.46      17.57       1.12      18.69        0.49     0.20   0.803
  672                       23.29       0.00       0.00       2.46      17.57       1.12      18.69        0.75     0.30   0.803
  673                       23.29       0.00       0.00       2.46      17.57       1.12      18.69        0.64     0.26   0.803
  674                       23.29       0.00       0.00       2.46      17.57       1.12      18.69        0.93     0.38   0.803
  675                       23.29       0.00       0.00       2.46      17.57       1.12      18.69        0.88     0.36   0.803
  676                       23.29       0.00       0.00       2.46      17.57       1.12      18.69        0.85     0.35   0.803
  677                       23.29       0.00       0.00       2.46      17.57       1.12      18.69        0.75     0.30   0.803
  678                       23.29       0.00       0.00       2.46      17.57       1.12      18.69        0.77     0.31   0.803
  679                       23.29       0.00       0.00       2.46      17.57       1.12      18.69        0.66     0.27   0.803
  680                       23.29       0.00       0.00       2.46      17.57       1.12      18.69        0.28     0.11   0.803
  681                       23.29       0.00       0.00       2.46      17.57       1.12      18.69        0.50     0.21   0.803
  682                       23.29       0.00       0.00       2.46      17.57       1.12      18.69        0.41     0.17   0.803
  683                       23.29       0.00       0.00       2.46      17.57       1.12      18.69        0.41     0.17   0.803
  684                       23.29       0.00       0.00       2.46      17.57       1.12      18.69        0.66     0.27   0.803
  685                       23.29       0.00       0.00       2.46      17.57       1.12      18.69        0.63     0.26   0.803
  686                       23.29       0.00       0.00       2.46      17.57       1.12      18.69        0.80     0.32   0.803
  687                       23.29       0.00       0.00       9.86       4.43       2.50       6.93        1.25     0.44   0.297
  688                       23.29       0.00       0.00       2.46      17.57       1.12      18.69        0.37     0.15   0.803
  689                       23.29       0.00       0.00       2.46      17.57       1.12      18.69        0.35     0.14   0.803
  690                       23.29       0.00       0.00       2.46      17.57       1.12      18.69        0.87     0.35   0.803
  691                       23.29       0.00       0.00       2.46      17.57       1.12      18.69        1.11     0.45   0.803
  692                       23.29       0.00       0.00       2.46      17.57       1.12      18.69        0.62     0.25   0.803
  693                       23.29       0.00       0.00       2.46      17.57       1.12      18.69        0.63     0.26   0.803
  694                       23.29       0.00       0.00       2.46      17.57       1.12      18.69        1.14     0.46   0.803
  695                       23.29       0.00       0.00       2.46      17.57       1.12      18.69        0.25     0.10   0.803
  696                       23.29       0.00       0.00       2.46      17.57       1.12      18.69        0.34     0.14   0.803
  697                       23.29       0.00       0.00       2.46      17.57       1.12      18.69        0.40     0.16   0.803
  698                       23.29       0.00       0.00       2.46      17.57       1.12      18.69        0.69     0.28   0.803
  699                       23.29       0.00       0.00       2.46      17.57       1.12      18.69        0.54     0.22   0.803
  700                       23.29       0.00       0.00       2.46      17.57       1.12      18.69        0.68     0.28   0.803
  701                       23.29       0.00       0.00       2.46      17.57       1.12      18.69        0.51     0.21   0.803
  702                       23.29       0.00       0.00       2.46      17.57       1.12      18.69        0.31     0.13   0.803
  703                       23.29       0.00       0.00       2.46      17.57       1.12      18.69        0.49     0.20   0.803
  704                       23.29       0.00       0.00       2.46      17.57       1.12      18.69        0.50     0.21   0.803
  705                       23.29       0.00       0.00       2.46      17.57       1.12      18.69        0.27     0.11   0.803
  706                       23.29       0.00       0.00       2.46      17.57       1.12      18.69        0.22     0.09   0.803
  707                       23.29       0.00       0.00       2.46      17.57       1.12      18.69        0.44     0.18   0.803
  708                       23.29       0.00       0.00       2.46      17.57       1.12      18.69        0.61     0.25   0.803
  709                       23.29       0.00       0.00       2.46      17.57       1.12      18.69        0.29     0.12   0.803
  710                       23.29       0.00       0.00       2.46      17.57       1.12      18.69        0.19     0.08   0.803
  711                       23.29       0.00       0.00       2.46      17.57       1.12      18.69        0.16     0.06   0.803
  712                       23.29       0.00       0.00       2.46      17.57       1.12      18.69        0.46     0.19   0.803
  713                       23.29       0.00       0.00       2.46      17.57       1.12      18.69        0.19     0.08   0.803
  714                       23.29       0.00       0.00       2.46      17.57       1.12      18.69        0.19     0.08   0.803
  715                       23.29       0.00       0.00       2.46      17.57       1.12      18.69        0.19     0.08   0.803
  716                       23.29       0.00       0.00       2.46      17.57       1.12      18.69        0.19     0.08   0.803
  717                       23.29       0.00       0.00       2.46      17.57       1.12      18.69        0.19     0.08   0.803
  718                       23.29       0.00       0.00       2.46      17.57       1.12      18.69        0.28     0.11   0.803
  719                       23.29       0.00       0.00       2.46      17.57       1.12      18.69        0.28     0.11   0.803
  720                       23.29       0.00       0.00       2.46      17.57       1.12      18.69        0.28     0.11   0.803
  721                       23.29       0.00       0.00       2.46      17.57       1.12      18.69        0.28     0.11   0.803
  722                       23.29       0.00       0.00       2.46      17.57       1.12      18.69        0.28     0.11   0.803
  723                       23.29       0.00       0.00       2.46      17.57       1.12      18.69        0.28     0.11   0.803
  724                       23.29       0.00       0.00       2.46      17.57       1.12      18.69        0.28     0.11   0.803
  725                       23.29       0.00       0.00       2.46      17.57       1.12      18.69        0.28     0.11   0.803
  726                       23.29       0.00       0.00       2.46      17.57       1.12      18.69        0.28     0.11   0.803
  727                       23.29       0.00       0.00       2.46      17.57       1.12      18.69        0.28     0.11   0.803
  728                       23.29       0.00       0.00       2.46      17.57       1.12      18.69        0.28     0.11   0.803
  729                       23.29       0.00       0.00       2.46      17.57       1.12      18.69        0.28     0.11   0.803
  730                       23.29       0.00       0.00       2.46      17.57       1.12      18.69        0.28     0.11   0.803
  731                       23.29       0.00       0.00       2.46      17.57       1.12      18.69        0.28     0.11   0.803
  732                       23.29       0.00       0.00       2.46      17.57       1.12      18.69        0.28     0.11   0.803
  733                       23.29       0.00       0.00       2.46      17.57       1.12      18.69        0.28     0.11   0.803
  734                       23.29       0.00       0.00       2.46      17.57       1.12      18.69        0.28     0.11   0.803
  735                       23.29       0.00       0.00       2.46      17.57       1.12      18.69        0.28     0.11   0.803
  736                       23.29       0.00       0.00       2.46      17.57       1.12      18.69        0.28     0.11   0.803
  737                       23.29       0.00       0.00       2.46      17.57       1.12      18.69        0.28     0.11   0.803
  738                       23.29       0.00       0.00       2.46      17.57       1.12      18.69        0.28     0.11   0.803
  739                       23.29       0.00       0.00       2.46      17.57       1.12      18.69        0.28     0.11   0.803
  740                       23.29       0.00       0.00       2.46      17.57       1.12      18.69        0.28     0.11   0.803
  741                       23.29       0.00       0.00       2.46      17.57       1.12      18.69        0.28     0.11   0.803
  742                       23.29       0.00       0.00       2.46      17.57       1.12      18.69        0.28     0.11   0.803
  743                       23.29       0.00       0.00       2.46      17.57       1.12      18.69        0.28     0.11   0.803
  744                       23.29       0.00       0.00       2.46      17.57       1.12      18.69        0.19     0.08   0.803
  745                       23.29       0.00       0.00       0.00      17.57       2.81      20.37        0.31     0.12   0.875
  746                       23.29       0.00       0.00       0.00      17.57       2.81      20.37        0.31     0.12   0.875
  747                       23.29       0.00       0.00       0.00      17.57       2.81      20.37        0.41     0.16   0.875
  
  
  ******************
  Node Depth Summary
  ******************
  
  ---------------------------------------------------------------------------------
                                 Average  Maximum  Maximum  Time of Max    Reported
                                   Depth    Depth      HGL   Occurrence   Max Depth
  Node                 Type       Meters   Meters   Meters  days hr:min      Meters
  ---------------------------------------------------------------------------------
  1                    JUNCTION     0.49     1.41    18.26     0  01:52        1.41
  2                    JUNCTION     0.93     2.93    18.16     0  02:04        2.93
  3                    JUNCTION     0.47     1.66    18.16     0  02:05        1.66
  4                    JUNCTION     0.54     1.96    18.12     0  02:06        1.96
  5                    JUNCTION     0.55     2.01    18.12     0  02:05        2.01
  6                    JUNCTION     0.66     2.32    18.11     0  02:04        2.32
  7                    JUNCTION     0.74     2.56    18.10     0  02:02        2.56
  8                    JUNCTION     1.13     3.50    18.10     0  02:03        3.50
  9                    JUNCTION     1.10     3.42    18.11     0  02:03        3.42
  10                   JUNCTION     0.38     1.34    18.19     0  02:04        1.34
  11                   JUNCTION     0.50     1.58    18.20     0  02:03        1.58
  12                   JUNCTION     0.40     1.35    18.20     0  01:57        1.35
  13                   JUNCTION     0.50     1.63    18.20     0  01:55        1.63
  14                   JUNCTION     0.53     1.78    18.15     0  02:04        1.78
  15                   JUNCTION     0.60     2.06    18.10     0  02:02        2.06
  16                   JUNCTION     0.62     2.19    18.07     0  02:01        2.19
  17                   JUNCTION     0.66     2.33    18.06     0  02:00        2.33
  18                   JUNCTION     0.76     2.60    18.05     0  01:58        2.60
  19                   JUNCTION     0.82     2.89    18.03     0  01:55        2.89
  20                   JUNCTION     0.88     3.12    18.02     0  01:54        3.12
  21                   JUNCTION     0.24     1.19    18.04     0  01:59        1.19
  22                   JUNCTION     0.26     1.48    18.04     0  01:58        1.48
  23                   JUNCTION     0.21     1.21    18.06     0  01:59        1.21
  24                   JUNCTION     0.30     1.53    18.09     0  02:00        1.53
  25                   JUNCTION     0.33     1.30    18.15     0  02:02        1.30
  26                   JUNCTION     0.52     1.70    18.21     0  01:53        1.70
  27                   JUNCTION     0.52     1.79    18.17     0  02:02        1.79
  28                   JUNCTION     0.59     1.85    18.18     0  02:06        1.85
  29                   JUNCTION     0.76     2.31    18.15     0  02:03        2.31
  30                   JUNCTION     0.86     2.66    18.14     0  02:02        2.66
  31                   JUNCTION     0.64     2.05    18.17     0  01:59        2.05
  32                   JUNCTION     0.65     2.32    18.11     0  02:00        2.32
  33                   JUNCTION     0.69     2.49    18.08     0  01:58        2.49
  34                   JUNCTION     0.78     2.92    18.04     0  01:56        2.92
  35                   JUNCTION     0.82     3.05    18.03     0  01:55        3.05
  36                   JUNCTION     0.33     1.64    18.02     0  01:54        1.64
  37                   JUNCTION     0.92     3.27    18.02     0  01:52        3.27
  38                   JUNCTION     1.29     4.13    18.00     0  01:48        4.13
  39                   JUNCTION     1.13     3.84    18.01     0  01:49        3.84
  40                   JUNCTION     1.08     3.75    18.01     0  01:52        3.74
  41                   JUNCTION     0.90     3.29    18.02     0  01:53        3.29
  42                   JUNCTION     0.26     1.40    18.03     0  01:56        1.40
  43                   JUNCTION     0.50     1.72    18.07     0  01:50        1.72
  44                   JUNCTION     0.88     2.88    18.08     0  02:00        2.88
  45                   JUNCTION     1.42     4.08    18.07     0  02:00        4.08
  46                   JUNCTION     1.21     3.68    18.09     0  02:02        3.68
  47                   JUNCTION     1.51     4.26    18.04     0  01:59        4.26
  48                   JUNCTION     1.58     4.43    18.00     0  01:58        4.43
  49                   JUNCTION     0.37     1.82    18.01     0  01:58        1.82
  50                   JUNCTION     0.43     1.70    18.03     0  01:52        1.70
  51                   JUNCTION     0.54     1.92    18.08     0  01:47        1.92
  52                   JUNCTION     0.55     2.09    18.02     0  01:50        2.09
  53                   JUNCTION     0.70     2.70    18.00     0  01:49        2.70
  54                   JUNCTION     0.47     1.80    18.00     0  01:50        1.80
  55                   JUNCTION     0.30     1.41    18.03     0  01:53        1.41
  56                   JUNCTION     0.36     1.28    18.08     0  01:50        1.28
  57                   JUNCTION     1.86     5.00    17.94     0  01:56        5.00
  58                   JUNCTION     1.79     4.89    18.00     0  01:33        4.85
  59                   JUNCTION     1.70     4.71    18.00     0  01:55        4.70
  60                   JUNCTION     1.34     4.21    18.00     0  01:48        4.21
  61                   JUNCTION     1.36     4.28    17.99     0  01:41        4.27
  62                   JUNCTION     1.38     4.33    17.97     0  01:47        4.32
  63                   JUNCTION     1.56     4.68    17.94     0  01:47        4.67
  64                   JUNCTION     1.59     4.73    17.93     0  01:48        4.73
  65                   JUNCTION     1.65     4.82    17.90     0  01:48        4.82
  66                   JUNCTION     1.62     4.77    17.92     0  01:48        4.77
  67                   JUNCTION     1.68     4.87    17.89     0  01:48        4.86
  68                   JUNCTION     1.70     4.91    17.88     0  01:48        4.89
  69                   JUNCTION     1.73     4.95    17.86     0  01:48        4.94
  70                   JUNCTION     1.75     4.99    17.84     0  01:48        4.98
  71                   JUNCTION     1.78     5.03    17.81     0  01:48        5.01
  72                   JUNCTION     1.28     4.22    17.76     0  01:48        4.22
  73                   JUNCTION     1.09     3.83    17.84     0  01:48        3.83
  74                   JUNCTION     1.01     3.62    17.88     0  01:43        3.61
  75                   JUNCTION     0.97     3.50    17.90     0  01:48        3.50
  76                   JUNCTION     0.90     3.34    17.99     0  01:42        3.30
  77                   JUNCTION     0.86     3.19    17.97     0  01:47        3.19
  78                   JUNCTION     0.82     3.08    17.99     0  01:47        3.07
  79                   JUNCTION     0.78     2.96    17.99     0  01:47        2.95
  80                   JUNCTION     0.74     2.84    18.00     0  01:48        2.84
  81                   JUNCTION     0.27     1.38    18.00     0  01:48        1.38
  82                   JUNCTION     0.35     1.61    18.00     0  01:49        1.61
  83                   JUNCTION     0.47     1.85    18.00     0  01:49        1.85
  84                   JUNCTION     0.58     2.13    18.00     0  01:45        2.13
  85                   JUNCTION     0.63     2.31    17.98     0  01:44        2.29
  86                   JUNCTION     0.73     2.60    18.00     0  01:44        2.57
  87                   JUNCTION     0.77     2.80    17.90     0  01:44        2.78
  88                   JUNCTION     0.86     3.07    17.83     0  01:44        3.06
  89                   JUNCTION     0.31     1.50    17.95     0  01:45        1.49
  90                   JUNCTION     0.36     1.66    17.87     0  01:45        1.61
  91                   JUNCTION     0.38     1.79    17.90     0  01:45        1.69
  92                   JUNCTION     0.47     2.10    17.73     0  01:48        2.10
  93                   JUNCTION     1.47     4.53    17.72     0  01:47        4.53
  94                   JUNCTION     1.80     5.06    17.79     0  01:48        5.05
  95                   JUNCTION     0.35     1.73    17.78     0  01:48        1.73
  96                   JUNCTION     0.40     1.84    17.77     0  01:48        1.84
  97                   JUNCTION     0.18     1.19    17.69     0  01:48        1.19
  98                   JUNCTION     0.32     1.60    17.51     0  01:47        1.58
  99                   JUNCTION     0.22     1.31    17.56     0  01:47        1.31
  100                  JUNCTION     0.32     1.44    17.67     0  01:40        1.42
  101                  JUNCTION     0.25     1.50    18.00     0  01:34        1.40
  102                  JUNCTION     0.54     1.91    18.14     0  01:44        1.91
  103                  JUNCTION     0.49     1.81    18.18     0  01:46        1.81
  104                  JUNCTION     0.53     1.88    18.16     0  01:47        1.88
  105                  JUNCTION     0.45     1.67    18.17     0  01:49        1.67
  106                  JUNCTION     0.52     1.87    18.16     0  01:50        1.87
  107                  JUNCTION     0.40     1.64    18.14     0  01:55        1.64
  108                  JUNCTION     0.37     1.53    18.13     0  01:54        1.53
  109                  JUNCTION     0.57     1.95    18.13     0  01:45        1.95
  110                  JUNCTION     0.29     1.49    18.05     0  01:44        1.49
  111                  JUNCTION     0.60     2.25    18.05     0  01:42        2.25
  112                  JUNCTION     0.71     2.59    18.03     0  01:41        2.59
  113                  JUNCTION     0.61     2.23    18.05     0  01:39        2.23
  114                  JUNCTION     0.66     2.39    18.00     0  01:39        2.39
  115                  JUNCTION     0.58     2.12    18.00     0  01:40        2.12
  116                  JUNCTION     0.10     0.72    17.34     0  01:49        0.72
  117                  JUNCTION     0.37     1.60    17.34     0  01:49        1.59
  118                  JUNCTION     0.61     1.61    18.22     0  02:22        1.60
  119                  JUNCTION     0.38     1.96    17.51     0  01:45        1.91
  120                  JUNCTION     1.90     5.15    17.59     0  01:48        5.13
  121                  JUNCTION     1.90     5.15    17.63     0  01:48        5.14
  122                  JUNCTION     1.90     5.17    17.69     0  01:48        5.16
  123                  JUNCTION     1.49     4.56    17.72     0  01:47        4.55
  124                  JUNCTION     1.95     5.17    17.91     0  01:56        5.16
  125                  JUNCTION     0.71     2.34    17.99     0  01:49        2.33
  126                  JUNCTION     0.82     2.54    18.00     0  01:49        2.54
  127                  JUNCTION     0.88     2.64    18.00     0  01:48        2.64
  128                  JUNCTION     1.08     2.98    18.04     0  01:31        2.98
  129                  JUNCTION     1.15     3.14    18.00     0  01:23        3.13
  130                  JUNCTION     1.16     3.30    18.00     0  01:24        3.23
  131                  JUNCTION     1.15     3.45    18.00     0  01:27        3.32
  132                  JUNCTION     1.15     3.43    17.83     0  01:48        3.42
  133                  JUNCTION     1.26     3.79    17.77     0  01:48        3.78
  134                  JUNCTION     1.28     3.86    17.74     0  01:48        3.85
  135                  JUNCTION     1.30     3.93    17.70     0  01:48        3.91
  136                  JUNCTION     1.30     3.99    17.66     0  01:48        3.96
  137                  JUNCTION     1.32     4.04    17.60     0  01:48        4.02
  138                  JUNCTION     1.32     4.08    17.54     0  01:47        4.07
  139                  JUNCTION     1.30     4.10    17.45     0  01:47        4.08
  140                  JUNCTION     1.92     5.07    17.32     0  01:48        5.05
  141                  JUNCTION     1.89     4.99    17.18     0  01:48        4.97
  142                  JUNCTION     1.00     2.35    18.24     0  02:06        2.35
  143                  JUNCTION     0.47     1.84    16.96     0  01:55        1.84
  144                  JUNCTION     0.00     0.00    16.13     0  00:00        0.00
  145                  JUNCTION     0.59     2.61    18.00     0  01:28        2.39
  146                  JUNCTION     0.79     3.03    18.00     0  01:35        2.95
  147                  JUNCTION     0.37     1.91    18.00     0  01:36        1.91
  148                  JUNCTION     0.64     2.40    17.34     0  01:32        2.36
  149                  JUNCTION     0.29     1.91    18.00     0  01:31        1.90
  150                  JUNCTION     0.50     2.20    18.00     0  01:33        2.02
  151                  JUNCTION     0.71     2.48    18.01     0  01:28        2.48
  152                  JUNCTION     0.81     2.41    18.06     0  01:45        2.41
  153                  JUNCTION     0.60     2.03    18.10     0  01:52        2.03
  154                  JUNCTION     0.88     2.40    18.12     0  01:56        2.40
  155                  JUNCTION     0.92     2.36    18.15     0  02:02        2.36
  156                  JUNCTION     0.74     1.92    18.19     0  01:59        1.92
  157                  JUNCTION     0.46     1.53    18.15     0  02:00        1.53
  158                  JUNCTION     0.49     1.64    18.14     0  01:57        1.64
  159                  JUNCTION     0.54     1.79    18.16     0  01:48        1.79
  160                  JUNCTION     0.65     1.99    18.16     0  01:47        1.99
  161                  JUNCTION     2.03     5.33    17.84     0  01:56        5.33
  162                  JUNCTION     2.06     5.38    17.78     0  01:56        5.38
  163                  JUNCTION     2.09     5.43    17.75     0  01:56        5.42
  164                  JUNCTION     2.11     5.47    17.71     0  01:56        5.46
  165                  JUNCTION     2.13     5.50    17.65     0  01:57        5.49
  166                  JUNCTION     2.15     5.51    17.59     0  01:57        5.51
  167                  JUNCTION     2.17     5.53    17.53     0  01:54        5.53
  168                  JUNCTION     2.18     5.54    17.46     0  01:54        5.54
  169                  JUNCTION     2.19     5.55    17.39     0  01:52        5.55
  170                  JUNCTION     2.20     5.55    17.31     0  01:52        5.55
  171                  JUNCTION     2.21     5.56    17.23     0  01:49        5.55
  172                  JUNCTION     2.22     5.55    17.15     0  01:49        5.55
  173                  JUNCTION     2.23     5.55    17.07     0  01:49        5.54
  174                  JUNCTION     2.23     5.54    16.98     0  01:49        5.53
  175                  JUNCTION     2.24     5.52    16.88     0  01:50        5.51
  176                  JUNCTION     2.24     5.50    16.78     0  01:48        5.49
  177                  JUNCTION     2.48     5.77    16.67     0  01:48        5.76
  178                  JUNCTION     1.28     3.02    18.26     0  01:52        3.02
  179                  JUNCTION     0.60     2.10    16.66     0  01:49        2.10
  180                  JUNCTION     0.00     0.00    15.47     0  00:00        0.00
  181                  JUNCTION     0.54     2.40    17.36     0  01:33        2.29
  182                  JUNCTION     0.76     3.59    18.00     0  01:35        3.24
  183                  JUNCTION     0.12     1.15    18.00     0  01:35        1.15
  184                  JUNCTION     0.45     1.57    16.09     0  01:40        1.57
  185                  JUNCTION     0.11     1.15    18.00     0  01:33        0.72
  186                  JUNCTION     0.49     1.79    16.94     0  01:39        1.79
  187                  JUNCTION     0.93     2.46    16.66     0  01:35        2.45
  188                  JUNCTION     1.12     3.36    17.76     0  01:28        3.10
  189                  JUNCTION     1.20     3.32    17.96     0  01:32        3.29
  190                  JUNCTION     1.12     2.92    18.10     0  01:49        2.92
  191                  JUNCTION     1.04     2.63    18.12     0  01:58        2.63
  192                  JUNCTION     0.51     1.77    18.15     0  02:11        1.77
  193                  JUNCTION     0.73     2.32    18.13     0  02:02        2.32
  194                  JUNCTION     1.19     3.23    18.11     0  01:59        3.23
  195                  JUNCTION     0.37     1.29    18.14     0  01:50        1.29
  196                  JUNCTION     0.54     1.77    18.16     0  01:47        1.77
  197                  JUNCTION     0.69     2.19    18.12     0  01:55        2.19
  198                  JUNCTION     1.39     3.66    18.09     0  01:53        3.66
  199                  JUNCTION     1.52     3.99    18.06     0  01:47        3.99
  200                  JUNCTION     0.68     2.15    18.19     0  01:47        2.15
  201                  JUNCTION     0.54     1.74    18.21     0  01:52        1.74
  202                  JUNCTION     0.42     1.40    18.20     0  01:47        1.40
  203                  JUNCTION     0.25     1.49    18.03     0  01:36        1.49
  204                  JUNCTION     0.37     1.98    18.00     0  01:26        1.98
  205                  JUNCTION     1.35     4.18    18.00     0  01:27        4.07
  206                  JUNCTION     1.09     4.01    17.54     0  01:32        3.97
  207                  JUNCTION     0.16     1.66    18.00     0  01:28        1.62
  208                  JUNCTION     0.05     1.16    18.01     0  01:32        1.16
  209                  JUNCTION     0.63     1.50    15.52     0  01:36        1.50
  210                  JUNCTION     0.39     1.71    18.09     0  01:41        1.71
  211                  JUNCTION     0.23     0.83    16.56     0  01:24        0.80
  212                  JUNCTION     0.64     2.35    15.47     0  01:33        2.35
  213                  JUNCTION     0.47     1.40    14.25     0  01:34        1.40
  214                  JUNCTION     0.00     0.00    16.18     0  00:00        0.00
  215                  JUNCTION     0.50     1.04    14.53     0  01:37        1.04
  216                  JUNCTION     0.00     0.00    16.85     0  00:00        0.00
  217                  JUNCTION     0.50     0.99    14.01     0  01:37        0.99
  218                  JUNCTION     0.51     1.02    13.62     0  01:37        1.02
  219                  JUNCTION     0.49     0.96    13.44     0  01:33        0.96
  220                  JUNCTION     0.56     1.11    12.88     0  01:32        1.11
  221                  JUNCTION     0.64     1.33    12.53     0  01:39        1.33
  222                  JUNCTION     0.38     1.20    14.92     0  01:33        1.20
  223                  JUNCTION     0.44     1.60    15.64     0  01:35        1.59
  224                  JUNCTION     0.44     1.71    16.06     0  01:35        1.71
  225                  JUNCTION     0.00     0.00    14.83     0  00:00        0.00
  226                  JUNCTION     0.00     0.00    14.30     0  00:00        0.00
  227                  JUNCTION     0.00     0.00    13.76     0  00:00        0.00
  228                  JUNCTION     0.63     1.33    12.47     0  01:39        1.33
  229                  JUNCTION     0.51     1.71    15.72     0  01:52        1.71
  230                  JUNCTION     0.45     1.71    15.25     0  01:23        1.40
  231                  JUNCTION     0.40     1.32    14.38     0  01:23        1.21
  232                  JUNCTION     0.67     1.42    12.41     0  01:40        1.42
  233                  JUNCTION     1.37     3.60    18.20     0  01:45        3.60
  234                  JUNCTION     0.84     2.81    16.79     0  01:30        2.81
  235                  JUNCTION     0.51     1.52    14.99     0  01:30        1.51
  236                  JUNCTION     0.67     1.43    12.35     0  01:45        1.43
  237                  JUNCTION     2.31     5.14    15.66     0  01:49        5.14
  238                  JUNCTION     1.92     4.18    14.54     0  01:49        4.17
  239                  JUNCTION     1.55     3.24    13.45     0  01:49        3.24
  240                  JUNCTION     1.44     2.73    12.29     0  01:45        2.73
  241                  JUNCTION     1.70     4.31    15.86     0  01:55        4.31
  242                  JUNCTION     0.08     0.26    16.44     0  01:30        0.26
  243                  JUNCTION     0.12     0.39    15.81     0  01:30        0.39
  244                  JUNCTION     0.00     0.00    16.65     0  00:00        0.00
  245                  JUNCTION     0.75     1.93    13.65     0  01:43        1.93
  246                  JUNCTION     1.69     4.34    16.05     0  01:58        4.34
  247                  JUNCTION     0.03     0.98    17.35     0  01:38        0.47
  248                  JUNCTION     0.89     3.60    17.08     0  01:31        3.34
  249                  JUNCTION     0.74     2.71    15.79     0  01:41        2.71
  250                  JUNCTION     1.05     3.02    14.84     0  01:43        3.01
  251                  JUNCTION     1.68     4.39    16.25     0  01:58        4.39
  252                  JUNCTION     0.19     1.58    17.95     0  01:33        1.45
  253                  JUNCTION     0.96     3.78    17.42     0  01:31        3.61
  254                  JUNCTION     1.68     4.44    16.45     0  02:00        4.44
  255                  JUNCTION     0.45     1.81    18.18     0  01:42        1.81
  256                  JUNCTION     1.00     3.86    17.76     0  01:31        3.78
  257                  JUNCTION     0.30     1.79    18.06     0  01:32        1.79
  258                  JUNCTION     1.18     3.70    15.80     0  01:43        3.70
  259                  JUNCTION     1.68     4.53    16.69     0  01:57        4.52
  260                  JUNCTION     0.29     1.68    18.01     0  01:29        1.68
  261                  JUNCTION     1.00     3.89    18.00     0  01:27        3.80
  262                  JUNCTION     0.00     0.00    16.85     0  00:00        0.00
  263                  JUNCTION     1.23     3.91    16.15     0  01:42        3.91
  264                  JUNCTION     1.68     4.63    16.94     0  01:56        4.63
  265                  JUNCTION     0.87     3.34    18.10     0  01:46        3.34
  266                  JUNCTION     1.02     3.79    18.05     0  01:38        3.79
  267                  JUNCTION     0.94     3.50    17.07     0  01:35        3.47
  268                  JUNCTION     1.27     4.08    16.45     0  01:45        4.08
  269                  JUNCTION     1.66     4.68    17.14     0  01:56        4.68
  270                  JUNCTION     1.64     4.78    17.40     0  01:56        4.73
  271                  JUNCTION     0.71     2.77    18.12     0  01:49        2.77
  272                  JUNCTION     0.12     1.73    18.00     0  01:34        1.73
  273                  JUNCTION     0.99     3.78    17.57     0  01:35        3.76
  274                  JUNCTION     1.07     3.60    16.85     0  01:47        3.59
  275                  JUNCTION     1.62     4.78    17.54     0  01:56        4.75
  276                  JUNCTION     1.56     4.71    17.62     0  01:56        4.69
  277                  JUNCTION     1.42     4.51    17.69     0  01:56        4.47
  278                  JUNCTION     1.34     4.44    17.81     0  01:56        4.33
  279                  JUNCTION     0.54     1.98    18.20     0  01:46        1.98
  280                  JUNCTION     0.56     2.16    18.18     0  01:48        2.16
  281                  JUNCTION     0.88     3.54    18.04     0  01:42        3.54
  282                  JUNCTION     0.59     2.49    18.18     0  01:47        2.49
  283                  JUNCTION     0.58     2.54    18.03     0  01:52        2.54
  284                  JUNCTION     0.12     1.47    18.00     0  01:33        1.39
  285                  JUNCTION     0.98     3.94    17.91     0  01:30        3.81
  286                  JUNCTION     0.99     3.86    17.91     0  01:30        3.83
  287                  JUNCTION     0.96     3.83    18.00     0  01:30        3.80
  288                  JUNCTION     0.94     3.70    18.00     0  01:35        3.69
  289                  JUNCTION     0.26     1.49    18.05     0  01:46        1.49
  290                  JUNCTION     0.94     3.59    17.79     0  01:45        3.54
  291                  JUNCTION     1.06     3.82    17.73     0  01:45        3.80
  292                  JUNCTION     1.10     3.74    17.42     0  01:47        3.69
  293                  JUNCTION     1.10     3.60    17.14     0  01:47        3.58
  294                  JUNCTION     0.75     3.15    17.93     0  01:45        3.08
  295                  JUNCTION     0.14     1.20    18.05     0  01:45        1.20
  296                  JUNCTION     0.82     3.40    18.07     0  01:41        3.40
  297                  JUNCTION     0.76     3.24    18.08     0  01:39        3.24
  298                  JUNCTION     0.19     1.15    18.00     0  01:32        1.15
  299                  JUNCTION     1.26     4.24    17.82     0  01:56        4.16
  300                  JUNCTION     1.17     4.06    17.84     0  01:56        4.02
  301                  JUNCTION     1.07     3.92    17.90     0  01:56        3.89
  302                  JUNCTION     0.90     3.66    18.01     0  01:55        3.66
  303                  JUNCTION     0.24     1.66    18.00     0  01:31        1.66
  304                  JUNCTION     0.49     2.45    18.11     0  01:36        2.45
  305                  JUNCTION     0.40     1.98    18.06     0  01:52        1.98
  306                  JUNCTION     0.59     2.72    17.99     0  01:39        2.67
  307                  JUNCTION     0.43     1.52    18.19     0  01:49        1.52
  308                  JUNCTION     0.64     2.24    18.17     0  02:10        2.24
  309                  JUNCTION     0.35     1.30    18.15     0  02:00        1.30
  310                  JUNCTION     0.43     1.50    18.17     0  01:47        1.50
  311                  JUNCTION     0.39     1.40    18.20     0  01:47        1.40
  312                  JUNCTION     0.29     1.30    18.15     0  01:58        1.30
  313                  JUNCTION     0.35     1.34    18.19     0  01:53        1.34
  314                  JUNCTION     0.37     1.41    18.21     0  01:50        1.41
  315                  JUNCTION     0.35     1.39    18.19     0  01:49        1.39
  316                  JUNCTION     0.39     1.54    18.21     0  01:46        1.54
  317                  JUNCTION     0.39     1.56    18.36     0  01:45        1.56
  318                  JUNCTION     0.16     1.15    18.00     0  01:32        1.05
  319                  JUNCTION     0.12     1.15    18.00     0  01:34        1.15
  320                  JUNCTION     0.17     0.93    17.78     0  01:30        0.92
  321                  JUNCTION     0.14     1.11    17.78     0  01:45        0.86
  322                  JUNCTION     0.17     1.20    18.00     0  01:44        0.99
  323                  JUNCTION     0.07     1.15    18.00     0  01:41        0.99
  324                  JUNCTION     0.16     1.06    17.86     0  01:48        1.05
  325                  JUNCTION     0.16     1.03    17.83     0  01:48        1.01
  326                  JUNCTION     0.16     1.06    17.86     0  01:39        1.02
  327                  JUNCTION     0.20     1.18    17.85     0  01:48        1.16
  328                  JUNCTION     0.20     1.33    18.00     0  01:38        1.18
  329                  JUNCTION     0.11     1.12    17.97     0  01:39        1.02
  330                  JUNCTION     0.24     1.27    17.94     0  01:48        1.25
  331                  JUNCTION     0.12     1.15    18.00     0  01:39        1.15
  332                  JUNCTION     0.18     1.15    17.95     0  01:48        1.14
  333                  JUNCTION     0.13     1.15    18.00     0  01:38        1.08
  334                  JUNCTION     0.13     1.15    18.00     0  01:38        1.09
  335                  JUNCTION     0.19     1.20    18.00     0  01:37        1.18
  336                  JUNCTION     0.23     1.19    18.04     0  01:52        1.19
  337                  JUNCTION     0.45     1.64    18.31     0  01:49        1.64
  338                  JUNCTION     0.26     1.28    18.13     0  02:08        1.28
  339                  JUNCTION     0.34     1.30    18.15     0  02:09        1.30
  340                  JUNCTION     0.39     1.34    18.19     0  02:03        1.34
  341                  JUNCTION     0.31     1.32    18.17     0  02:13        1.32
  342                  JUNCTION     0.22     1.19    18.04     0  02:04        1.19
  343                  JUNCTION     0.17     1.16    18.01     0  01:48        1.16
  344                  JUNCTION     0.06     1.15    18.00     0  02:07        1.15
  345                  JUNCTION     0.10     1.15    18.00     0  01:40        1.15
  346                  JUNCTION     0.02     0.31    17.16     0  01:56        0.31
  348                  JUNCTION     0.00     0.00    16.85     0  00:00        0.00
  349                  JUNCTION     0.11     1.16    18.01     0  01:30        1.16
  350                  JUNCTION     0.35     1.31    18.16     0  02:09        1.31
  z_0512_001_013       JUNCTION     0.06     0.57    17.42     0  01:40        0.49
  z_0512_001_014       JUNCTION     0.00     0.00    16.85     0  00:00        0.00
  z_0512_001_015       JUNCTION     0.50     1.38    18.23     0  02:23        1.38
  z_0512_001_016       JUNCTION     0.02     0.74    17.59     0  01:45        0.69
  z_0512_001_017       JUNCTION     0.06     0.74    17.59     0  01:48        0.71
  z_0512_001_019       JUNCTION     0.04     1.15    18.00     0  01:47        1.15
  z_0512_001_021       JUNCTION     0.05     1.15    18.00     0  01:45        0.68
  z_0512_001_025       JUNCTION     0.02     0.51    17.36     0  01:47        0.46
  z_0512_001_026       JUNCTION     0.50     1.39    18.24     0  02:06        1.39
  z_0512_001_027       JUNCTION     0.01     0.12    16.97     0  01:54        0.12
  z_0512_001_028       JUNCTION     0.00     0.00    16.85     0  00:00        0.00
  z_0512_001_029       JUNCTION     0.09     1.15    18.00     0  01:28        0.93
  z_0512_001_030       JUNCTION     0.12     1.15    18.00     0  01:38        1.15
  z_0512_001_055       JUNCTION     0.03     1.15    18.00     0  01:56        0.36
  z_0512_001_057       JUNCTION     0.01     0.23    17.08     0  02:00        0.23
  z_0512_001_059       JUNCTION     0.00     0.02    16.87     0  02:00        0.02
  z_0512_001_062       JUNCTION     0.00     0.00    16.85     0  00:00        0.00
  z_0512_001_064       JUNCTION     0.00     0.00    16.85     0  00:00        0.00
  z_0512_001_065       JUNCTION     0.05     1.15    18.00     0  01:45        1.14
  z_0512_001_066       JUNCTION     0.00     0.00    16.85     0  00:00        0.00
  z_0512_001_067       JUNCTION     0.04     1.15    18.00     0  01:46        0.74
  z_0512_001_068       JUNCTION     0.00     0.00    16.85     0  00:00        0.00
  z_0512_001_069       JUNCTION     0.03     1.15    18.00     0  01:48        0.45
  z_0512_001_070       JUNCTION     0.00     0.00    16.85     0  00:00        0.00
  z_0512_001_071       JUNCTION     0.42     1.41    18.26     0  01:54        1.41
  z_0512_001_072       JUNCTION     0.00     0.00    16.85     0  00:00        0.00
  z_0512_001_073       JUNCTION     0.00     0.00    16.85     0  00:00        0.00
  z_0512_001_074       JUNCTION     0.01     0.67    17.52     0  01:33        0.41
  z_0512_001_075       JUNCTION     0.03     1.15    18.00     0  01:35        0.79
  z_0512_001_077       JUNCTION     0.00     0.00    16.85     0  00:00        0.00
  z_0512_001_079       JUNCTION     0.00     0.10    16.95     0  01:40        0.10
  z_0512_001_083       JUNCTION     0.36     1.37    18.22     0  01:49        1.37
  z_0512_001_085       JUNCTION     0.08     1.15    18.00     0  01:31        0.83
  z_0512_001_086       JUNCTION     0.36     1.37    18.22     0  01:53        1.37
  z_0512_001_087       JUNCTION     0.13     1.17    18.02     0  01:40        1.17
  z_0512_001_088       JUNCTION     0.22     1.25    18.10     0  01:38        1.25
  z_0512_001_089       JUNCTION     0.00     0.00    16.85     0  00:00        0.00
  z_0512_001_090       JUNCTION     0.00     0.00    16.85     0  00:00        0.00
  z_0512_001_092       JUNCTION     0.22     1.25    18.10     0  01:42        1.25
  z_0512_001_093       JUNCTION     0.00     0.00    16.85     0  00:00        0.00
  z_0512_001_094       JUNCTION     0.00     0.00    16.85     0  00:00        0.00
  z_0512_001_095       JUNCTION     0.00     0.00    16.85     0  00:00        0.00
  z_0512_001_096       JUNCTION     0.00     0.00    16.85     0  00:00        0.00
  z_0512_001_097       JUNCTION     0.28     1.36    18.21     0  01:45        1.36
  z_0512_001_099       JUNCTION     0.00     0.00    16.85     0  00:00        0.00
  z_0512_001_100       JUNCTION     0.00     0.00    16.85     0  00:00        0.00
  z_0512_001_101       JUNCTION     0.00     0.00    16.85     0  00:00        0.00
  z_0512_001_102       JUNCTION     0.00     0.00    16.85     0  00:00        0.00
  z_0512_001_103       JUNCTION     0.00     0.03    16.88     0  01:39        0.03
  z_0512_001_104       JUNCTION     0.05     1.15    18.00     0  01:33        1.15
  z_0512_001_106       JUNCTION     0.27     1.34    18.19     0  01:49        1.34
  z_0512_001_107       JUNCTION     0.13     1.20    18.05     0  01:38        1.20
  z_0512_001_108       JUNCTION     0.14     1.16    18.01     0  01:33        1.16
  z_0512_001_109       JUNCTION     0.13     1.16    18.01     0  01:31        1.16
  z_0512_001_110       JUNCTION     0.20     1.26    18.11     0  01:49        1.26
  z_0512_001_111       JUNCTION     0.01     0.21    17.06     0  01:44        0.21
  z_0512_001_112       JUNCTION     0.23     1.28    18.13     0  01:56        1.28
  z_0512_001_113       JUNCTION     0.04     1.15    18.00     0  01:38        1.15
  z_0512_001_114       JUNCTION     0.07     1.16    18.01     0  01:35        1.16
  z_0512_001_115       JUNCTION     0.00     0.00    16.85     0  00:00        0.00
  z_0512_001_117       JUNCTION     0.13     1.18    18.03     0  01:48        1.18
  z_0512_001_119       JUNCTION     0.13     1.19    18.04     0  01:45        1.19
  z_0512_001_120       JUNCTION     0.11     1.16    18.01     0  01:32        1.16
  z_0512_001_121       JUNCTION     0.18     1.18    18.03     0  01:53        1.18
  z_0512_001_122       JUNCTION     0.02     0.30    17.15     0  01:53        0.30
  z_0512_001_123       JUNCTION     0.04     1.15    18.00     0  01:46        0.96
  z_0512_001_124       JUNCTION     0.07     1.15    18.00     0  01:45        1.15
  z_0512_001_125       JUNCTION     0.07     1.15    18.00     0  01:44        1.00
  z_0512_001_126       JUNCTION     0.09     1.15    18.00     0  01:45        1.15
  347                  OUTFALL      1.05     1.74    11.13     0  01:45        1.74
  
  
  *******************
  Node Inflow Summary
  *******************
  
  -------------------------------------------------------------------------------------------------
                                  Maximum  Maximum                  Lateral       Total        Flow
                                  Lateral    Total  Time of Max      Inflow      Inflow     Balance
                                   Inflow   Inflow   Occurrence      Volume      Volume       Error
  Node                 Type           CMS      CMS  days hr:min    10^6 ltr    10^6 ltr     Percent
  -------------------------------------------------------------------------------------------------
  1                    JUNCTION     0.139    0.139     0  01:30        0.34       0.341       1.022
  2                    JUNCTION     0.133    0.562     0  01:29       0.327        1.38       1.255
  3                    JUNCTION     0.114    0.268     0  01:32        0.28        0.65       0.309
  4                    JUNCTION     0.000    0.374     0  01:30           0       0.954      -0.340
  5                    JUNCTION     0.000    0.373     0  01:30           0       0.992       0.953
  6                    JUNCTION     0.138    0.683     0  01:30       0.338        1.66      -0.405
  7                    JUNCTION     0.090    0.905     0  01:30       0.221        2.18       1.851
  8                    JUNCTION     0.000    0.709     0  01:28           0        2.07       0.109
  9                    JUNCTION     0.296    0.723     0  01:28       0.727        2.04      -0.545
  10                   JUNCTION     0.111    0.183     0  01:29       0.273       0.414       1.314
  11                   JUNCTION     0.139    0.179     0  01:30        0.34       0.525       0.402
  12                   JUNCTION     0.260    0.260     0  01:30       0.639       0.674       0.886
  13                   JUNCTION     0.161    0.258     0  01:26       0.394        0.66      -0.122
  14                   JUNCTION     0.000    0.216     0  01:26           0        0.74       0.854
  15                   JUNCTION     0.151    0.340     0  01:26        0.37        1.09      -0.092
  16                   JUNCTION     0.000    0.313     0  01:27           0        1.03       0.229
  17                   JUNCTION     0.000    0.275     0  01:27           0        0.88       0.209
  18                   JUNCTION     0.140    0.409     0  01:29       0.344        1.22       0.088
  19                   JUNCTION     0.000    0.330     0  01:26           0        1.18       0.419
  20                   JUNCTION     0.076    0.399     0  01:26       0.187        1.36      -0.206
  21                   JUNCTION     0.132    0.139     0  01:32       0.323       0.363       2.117
  22                   JUNCTION     0.000    0.124     0  01:35           0       0.101       2.484
  23                   JUNCTION     0.000    0.104     0  01:34           0       0.153       4.275
  24                   JUNCTION     0.000    0.129     0  01:32           0      0.0716       4.872
  25                   JUNCTION     0.145    0.171     0  01:26       0.357        0.38       2.865
  26                   JUNCTION     0.189    0.189     0  01:30       0.464       0.468       0.212
  27                   JUNCTION     0.166    0.321     0  01:25       0.408       0.728       1.222
  28                   JUNCTION     0.000    0.109     0  01:17           0        0.35       1.267
  29                   JUNCTION     0.179    0.256     0  01:30       0.439       0.782       0.915
  30                   JUNCTION     0.000    0.601     0  01:27           0        1.39      -0.898
  31                   JUNCTION     0.268    0.400     0  01:30       0.658        1.08       1.047
  32                   JUNCTION     0.000    0.418     0  01:26           0        1.18      -0.627
  33                   JUNCTION     0.143    0.542     0  01:29       0.351        1.61       0.933
  34                   JUNCTION     0.000    0.564     0  01:30           0        1.72      -0.488
  35                   JUNCTION     0.000    0.581     0  01:29           0        1.84       0.245
  36                   JUNCTION     0.000    0.152     0  01:34           0       0.308       0.050
  37                   JUNCTION     0.076    0.468     0  01:26       0.187        1.61       1.348
  38                   JUNCTION     0.144    1.198     0  01:26       0.353        5.36      -0.389
  39                   JUNCTION     0.257    0.725     0  01:26       0.632        3.44       0.036
  40                   JUNCTION     0.154    0.803     0  01:27       0.378        2.76      -0.324
  41                   JUNCTION     0.000    0.700     0  01:28           0        1.99       1.075
  42                   JUNCTION     0.000    0.160     0  01:38           0        0.24       0.530
  43                   JUNCTION     0.358    0.358     0  01:30       0.879       0.955       3.253
  44                   JUNCTION     0.000    0.530     0  01:28           0        1.42       1.358
  45                   JUNCTION     0.000    1.422     0  01:30           0        4.43      -1.071
  46                   JUNCTION     0.114    0.748     0  01:26        0.28        2.33       0.887
  47                   JUNCTION     0.000    1.583     0  01:30           0        5.83      -0.006
  48                   JUNCTION     0.000    1.625     0  01:27           0        6.45       0.286
  49                   JUNCTION     0.000    0.187     0  01:35           0       0.182       1.405
  50                   JUNCTION     0.221    0.339     0  01:30       0.542       0.682       3.022
  51                   JUNCTION     0.395    0.453     0  01:30        0.97        1.05       0.163
  52                   JUNCTION     0.000    0.346     0  01:27           0       0.857       0.823
  53                   JUNCTION     0.355    0.759     0  01:30       0.871        1.79      -0.512
  54                   JUNCTION     0.119    0.279     0  01:24       0.292        0.49       0.945
  55                   JUNCTION     0.000    0.168     0  01:25           0       0.228       1.648
  56                   JUNCTION     0.510    0.510     0  01:30        1.25        1.27       0.382
  57                   JUNCTION     0.000    1.942     0  01:34           0        8.63       0.126
  58                   JUNCTION     0.201    1.773     0  01:33       0.494        7.59      -0.051
  59                   JUNCTION     0.000    1.581     0  01:27           0        6.58      -0.342
  60                   JUNCTION     0.244    1.902     0  01:25       0.598         7.7      -0.121
  61                   JUNCTION     0.114    2.046     0  01:25        0.28        8.31      -0.033
  62                   JUNCTION     0.159    2.185     0  01:25       0.391        8.95       0.285
  63                   JUNCTION     0.141    2.171     0  01:25       0.346        9.34      -0.309
  64                   JUNCTION     0.279    2.236     0  01:24       0.684        10.1       0.011
  65                   JUNCTION     0.138    2.164     0  01:23       0.338          11       0.040
  66                   JUNCTION     0.139    2.233     0  01:24        0.34        10.6      -0.018
  67                   JUNCTION     0.114    2.290     0  01:23        0.28        11.9      -0.048
  68                   JUNCTION     0.114    2.189     0  01:23        0.28        12.2       0.015
  69                   JUNCTION     0.000    2.179     0  01:42           0        12.5      -0.001
  70                   JUNCTION     0.000    2.160     0  01:43           0        12.9      -0.033
  71                   JUNCTION     0.114    2.265     0  01:43        0.28        13.4      -0.011
  72                   JUNCTION     0.136    0.727     0  01:24       0.333        3.52      -0.545
  73                   JUNCTION     0.183    0.736     0  01:26       0.451         3.2       0.854
  74                   JUNCTION     0.000    0.657     0  01:35           0        2.75      -0.025
  75                   JUNCTION     0.000    0.702     0  01:35           0        2.75       0.030
  76                   JUNCTION     0.000    0.915     0  01:34           0        2.76      -0.199
  77                   JUNCTION     0.136    0.861     0  01:29       0.335        2.73      -0.218
  78                   JUNCTION     0.091    0.894     0  01:33       0.224        2.33      -0.406
  79                   JUNCTION     0.000    0.774     0  01:29           0        1.99      -0.193
  80                   JUNCTION     0.000    0.795     0  01:30           0         1.9      -0.181
  81                   JUNCTION     0.000    0.115     0  01:26           0       0.129       3.076
  82                   JUNCTION     0.000    0.127     0  01:26           0       0.176       0.030
  83                   JUNCTION     0.132    0.213     0  01:30       0.325       0.483      -0.406
  84                   JUNCTION     0.126    0.229     0  01:30       0.308       0.656      -0.085
  85                   JUNCTION     0.000    0.170     0  01:27           0       0.571      -0.285
  86                   JUNCTION     0.323    0.415     0  01:28       0.793        1.26       0.203
  87                   JUNCTION     0.200    0.569     0  01:29       0.492        1.73       0.560
  88                   JUNCTION     0.000    0.537     0  01:29           0        1.74       0.603
  89                   JUNCTION     0.308    0.308     0  01:30       0.755       0.767       0.498
  90                   JUNCTION     0.119    0.369     0  01:30       0.306        1.03      -0.087
  91                   JUNCTION     0.123    0.490     0  01:30       0.303        1.33       0.829
  92                   JUNCTION     0.239    0.722     0  01:30       0.587        1.87      -0.264
  93                   JUNCTION     0.312    1.365     0  01:23       0.766        6.15      -0.292
  94                   JUNCTION     0.125    2.353     0  01:43       0.307          14       0.022
  95                   JUNCTION     0.457    0.606     0  01:30        1.12        1.57      -0.295
  96                   JUNCTION     0.226    0.822     0  01:30       0.555        2.14       2.095
  97                   JUNCTION     0.000    0.193     0  01:30           0       0.527       0.326
  98                   JUNCTION     0.065    0.747     0  01:30       0.159        2.03      -0.419
  99                   JUNCTION     0.138    0.310     0  01:30       0.338       0.855      -0.029
  100                  JUNCTION     0.133    0.227     0  01:29       0.327        0.65       0.141
  101                  JUNCTION     0.000    0.151     0  01:34           0       0.321      -0.392
  102                  JUNCTION     0.088    0.366     0  01:27       0.215        1.59      -0.496
  103                  JUNCTION     0.140    0.312     0  01:22       0.344        0.91       0.154
  104                  JUNCTION     0.000    0.271     0  01:23           0       0.695      -0.893
  105                  JUNCTION     0.000    0.231     0  01:25           0       0.363      -0.026
  106                  JUNCTION     0.116    0.234     0  01:26       0.284       0.605      -0.779
  107                  JUNCTION     0.000    0.197     0  01:26           0       0.162       2.327
  108                  JUNCTION     0.000    0.082     0  01:26           0        0.11       1.401
  109                  JUNCTION     0.270    0.408     0  01:28       0.664       0.946       0.077
  110                  JUNCTION     0.000    0.252     0  01:29           0       0.312      -3.732
  111                  JUNCTION     0.147    0.298     0  01:31       0.361       0.944       0.989
  112                  JUNCTION     0.442    0.486     0  01:29        1.08        1.82       0.078
  113                  JUNCTION     0.076    0.308     0  01:27       0.187       0.839      -0.557
  114                  JUNCTION     0.000    0.243     0  01:28           0       0.691      -0.173
[...]
  402                         0.01      0.01      4.22      0.01         0.01
  197                         2.05      2.05      2.09      0.10         0.05
  465                         0.01      0.01      4.63      0.01         0.01
  468                         0.53      0.53      0.64      0.01         0.01
  466                         0.48      0.48      0.79      0.01         0.01
  219                         1.16      1.16      1.22      0.01         0.01
  218                         0.51      0.51      0.67      0.01         0.01
  274                         0.47      0.47      0.61      0.01         0.01
  230                         1.02      1.02      1.45      0.13         0.13
  430                         0.97      0.97      4.50      0.01         0.01
  104                         1.34      1.34      1.60      0.01         0.01
  429                         0.88      0.88      4.62      0.01         0.01
  352                         0.77      0.77      4.60      0.01         0.01
  241                         0.98      0.98      1.19      0.01         0.01
  8                           1.16      1.16      1.29      0.06         0.05
  357                         0.54      0.54      0.97      0.01         0.01
  9                           1.21      1.22      1.24      0.31         0.31
  14                          0.99      0.99      1.22      0.01         0.01
  382                         0.83      0.83      0.99      0.01         0.01
  381                         0.26      0.26      4.53      0.01         0.01
  12                          1.34      1.34      1.50      0.06         0.03
  433                         0.95      0.98      4.58      0.05         0.02
  102                         1.84      2.13      1.85      1.57         1.22
  60                          1.58      1.58      1.67      0.04         0.05
  525                         0.13      0.13      4.39      0.01         0.01
  504                         0.18      0.18      4.39      0.01         0.01
  322                         1.48      1.48      1.55      0.01         0.01
  340                         1.00      1.00      1.05      0.25         0.24
  315                         1.65      1.65      1.67      0.01         0.01
  255                         0.58      0.58      0.75      0.01         0.01
  403                         0.01      0.01      4.38      0.01         0.01
  337                         1.45      1.45      1.60      0.01         0.01
  38                          1.77      1.89      1.77      1.00         0.74
  76                          2.08      2.08      2.09      0.08         0.13
  400                         0.01      0.01      4.23      0.01         0.01
  198                         1.99      1.99      2.05      0.01         0.01
  476                         0.51      0.51      0.79      0.01         0.01
  220                         1.11      1.11      1.16      0.01         0.01
  481                         0.40      0.40      4.47      0.01         0.01
  385                         1.12      1.12      4.50      0.02         0.01
  279                         1.16      1.16      1.20      0.03         0.02
  240                         0.98      0.98      1.16      0.01         0.01
  353                         0.85      0.85      4.60      0.01         0.01
  239                         0.97      0.97      1.11      0.01         0.02
  10                          1.11      1.11      1.22      0.04         0.01
  355                         0.83      0.84      4.51      0.02         0.01
  11                          1.11      1.11      1.33      0.01         0.01
  69                          1.42      1.42      1.58      0.01         0.01
  61                          1.44      1.44      1.58      0.02         0.02
  103                         2.09      2.09      2.13      1.00         0.92
  522                         0.15      0.15      4.37      0.01         0.01
  323                         1.44      1.44      1.48      0.01         0.02
  338                         0.97      1.00      1.00      0.36         0.28
  314                         1.63      1.63      1.65      0.01         0.01
  256                         0.59      0.59      0.78      0.01         0.01
  520                         0.21      0.21      4.50      0.01         0.01
  401                         0.01      0.01      4.50      0.01         0.01
  37                          1.89      1.92      1.89      0.85         0.72
  336                         1.42      1.47      1.45      0.31         0.19
  75                          2.07      2.07      2.08      0.04         0.06
  398                         0.01      0.01      4.24      0.01         0.01
  199                         1.94      1.94      1.99      0.01         0.01
  229                         0.97      0.97      1.11      0.01         0.01
  221                         0.66      0.66      0.81      0.01         0.01
  238                         0.95      0.95      1.11      0.01         0.02
  354                         0.85      0.85      4.56      0.01         0.01
  388                         0.91      0.91      4.58      0.01         0.01
  384                         0.95      0.95      1.18      0.01         0.01
  356                         0.84      0.84      4.61      0.01         0.01
  237                         1.17      1.17      1.33      0.01         0.01
  67                          1.32      1.32      1.42      0.01         0.01
  431                         1.20      1.20      1.65      0.01         0.01
  63                          1.95      1.95      2.09      0.04         0.05
  62                          1.91      1.91      2.02      0.01         0.01
  521                         0.21      0.21      4.39      0.01         0.01
  503                         0.25      0.25      4.37      0.01         0.01
  324                         1.38      1.38      1.44      0.01         0.02
  523                         0.15      0.15      4.56      0.01         0.01
  506                         0.20      0.20      4.34      0.01         0.01
  312                         1.62      1.62      1.63      0.01         0.01
  258                         0.61      0.61      0.77      0.01         0.01
  518                         0.28      0.28      4.55      0.01         0.01
  399                         0.01      0.01      4.55      0.01         0.01
  36                          1.92      1.94      1.92      0.79         0.70
  335                         1.46      1.62      1.47      0.90         0.65
  74                          2.05      2.05      2.07      0.07         0.07
  396                         0.01      0.01      4.25      0.01         0.01
  222                         1.88      1.88      1.94      0.01         0.01
  228                         0.75      0.75      0.97      0.02         0.01
  236                         1.17      1.17      1.32      0.01         0.01
  66                          1.49      1.49      1.84      0.01         0.01
  65                          1.44      1.44      1.86      0.01         0.01
  64                          1.82      1.84      1.95      0.18         0.12
  517                         0.31      0.31      4.43      0.01         0.01
  325                         1.34      1.34      1.38      0.05         0.03
  313                         1.60      1.60      1.62      0.01         0.01
  259                         0.61      0.61      0.81      0.01         0.01
  516                         0.31      0.31      4.59      0.01         0.01
  397                         0.01      0.01      4.59      0.01         0.01
  34                          1.94      1.94      1.94      0.48         0.46
  334                         1.48      1.48      1.62      0.01         0.01
  73                          2.04      2.04      2.05      0.01         0.04
  394                         0.01      0.01      4.25      0.01         0.01
  225                         1.82      1.82      1.88      0.01         0.01
  480                         0.04      0.04      4.47      0.01         0.01
  389                         0.91      0.91      4.53      0.01         0.01
  234                         1.27      1.27      1.49      0.01         0.01
  386                         1.05      1.05      4.61      0.01         0.01
  1                           1.46      1.46      1.68      0.16         0.18
  387                         0.99      0.99      4.51      0.01         0.01
  515                         0.37      0.37      4.44      0.01         0.01
  502                         0.29      0.29      4.40      0.01         0.01
  326                         1.31      1.31      1.34      0.01         0.02
  311                         1.58      1.58      1.60      0.01         0.01
  260                         0.63      0.63      0.82      0.01         0.01
  514                         0.37      0.37      4.61      0.01         0.01
  395                         0.01      0.01      4.61      0.01         0.01
  33                          1.88      1.88      1.94      0.05         0.05
  333                         1.42      1.42      1.48      0.05         0.05
  72                          2.02      2.02      2.04      0.01         0.03
  478                         0.45      0.66      0.77      0.28         0.06
  392                         0.14      0.14      4.26      0.01         0.01
  226                         1.76      1.76      1.82      0.01         0.01
  513                         0.40      0.40      4.45      0.01         0.01
  327                         1.28      1.28      1.31      0.01         0.01
  507                         0.29      0.29      4.39      0.01         0.01
  310                         1.56      1.56      1.58      0.01         0.01
  261                         0.64      0.64      0.83      0.01         0.01
  512                         0.40      0.40      4.63      0.01         0.01
  393                         0.01      0.01      4.63      0.01         0.01
  32                          1.75      1.75      1.88      0.01         0.01
  332                         1.32      1.32      1.42      0.01         0.01
  71                          2.00      2.00      2.02      0.01         0.03
  227                         1.59      1.59      1.76      0.01         0.01
  511                         0.39      0.39      4.45      0.01         0.01
  501                         0.37      0.37      4.44      0.01         0.01
  329                         1.26      1.26      1.28      0.01         0.01
  309                         1.55      1.55      1.56      0.09         0.06
  262                         0.64      0.64      0.83      0.01         0.01
  510                         0.39      0.39      4.62      0.01         0.01
  31                          1.70      1.70      1.75      0.01         0.01
  331                         1.17      1.17      1.32      0.01         0.01
  479                         0.04      0.04      4.32      0.01         0.01
  70                          1.98      1.98      2.00      0.03         0.03
  390                         0.26      0.26      4.29      0.01         0.01
  273                         0.10      0.10      1.35      0.01         0.01
  509                         0.40      0.40      4.46      0.01         0.01
  500                         0.39      0.39      4.44      0.01         0.01
  299                         1.22      1.22      1.26      0.02         0.01
  508                         0.35      0.35      4.41      0.01         0.01
  308                         1.53      1.53      1.55      0.07         0.03
  263                         0.68      0.68      0.85      0.01         0.01
  391                         0.18      0.18      4.59      0.01         0.01
  30                          1.64      1.64      1.70      0.01         0.01
  330                         1.04      1.04      1.17      0.01         0.01
  29                          1.91      1.91      1.98      0.05         0.04
  495                         0.42      0.42      4.47      0.01         0.01
  486                         0.40      0.40      4.44      0.01         0.01
  298                         1.22      1.38      1.22      0.29         0.06
  307                         1.51      1.51      1.53      0.06         0.02
  264                         0.72      0.81      0.87      0.18         0.01
  300                         1.21      1.21      1.64      0.01         0.01
  496                         0.42      0.42      4.56      0.01         0.01
  372                         0.42      0.42      4.38      0.01         0.01
  303                         1.86      1.86      1.91      0.01         0.01
  497                         0.49      0.49      4.56      0.01         0.01
  487                         0.43      0.43      4.53      0.01         0.01
  297                         1.33      1.37      1.38      0.30         0.22
  282                         1.49      1.49      1.51      0.01         0.01
  265                         0.77      1.05      0.86      0.67         0.36
  301                         1.10      1.10      1.21      0.01         0.01
  302                         0.81      1.21      0.86      0.81         0.33
  304                         1.81      1.81      1.86      0.01         0.02
  272                         0.67      0.67      1.33      0.01         0.01
  498                         0.69      0.69      4.70      0.01         0.01
  488                         0.45      0.45      4.59      0.01         0.01
  283                         1.46      1.46      1.49      0.01         0.01
  281                         1.46      1.48      1.48      0.14         0.05
  499                         0.69      0.69      4.58      0.01         0.01
  296                         1.06      1.20      1.17      0.22         0.04
  305                         1.76      1.76      1.81      0.01         0.01
  113                         1.45      1.46      1.48      0.17         0.11
  285                         1.42      1.42      1.46      0.01         0.01
  293                         1.74      1.74      1.76      0.31         0.17
  294                         1.10      1.10      1.18      0.01         0.01
  494                         0.64      0.64      4.58      0.01         0.01
  489                         0.52      0.52      4.47      0.01         0.01
  101                         1.45      1.47      1.46      0.21         0.12
  286                         1.34      1.34      1.42      0.01         0.01
  280                         1.00      1.00      1.10      0.01         0.01
  493                         0.55      0.55      4.41      0.01         0.01
  287                         0.93      0.93      1.10      0.01         0.01
  288                         1.08      1.31      1.23      0.29         0.03
  292                         1.70      1.72      1.74      0.19         0.09
  90                          1.44      1.49      1.47      0.23         0.14
  485                         0.49      0.49      4.42      0.01         0.01
  484                         0.57      0.57      4.42      0.01         0.01
  124                         0.83      0.87      0.90      0.05         0.01
  490                         0.61      0.61      4.39      0.01         0.01
  278                         1.27      1.27      1.34      0.01         0.01
  491                         0.68      0.68      4.40      0.01         0.01
  290                         1.67      1.67      1.72      0.05         0.05
  271                         0.88      0.88      1.16      0.01         0.01
  289                         1.47      1.59      1.51      0.25         0.07
  492                         0.77      0.77      4.57      0.01         0.01
  440                         0.87      0.87      1.04      0.01         0.01
  79                          1.40      1.40      1.49      0.01         0.01
  268                         1.23      1.23      1.27      0.01         0.01
  135                         0.90      0.90      1.06      0.01         0.01
  224                         1.53      1.58      1.59      0.33         0.23
  317                         1.25      1.25      1.35      0.03         0.01
  291                         1.62      1.62      1.67      0.01         0.01
  68                          1.37      1.37      1.40      0.04         0.04
  410                         0.61      0.61      4.41      0.01         0.01
  257                         1.20      1.35      1.23      0.34         0.15
  146                         0.86      0.86      0.96      0.01         0.01
  482                         0.91      0.91      4.54      0.01         0.01
  212                         1.55      1.68      1.58      0.35         0.17
  190                         1.18      1.18      1.36      0.03         0.03
  328                         1.58      1.58      1.62      0.01         0.01
  519                         0.84      0.84      4.44      0.01         0.01
  477                         0.88      0.88      4.44      0.01         0.01
  306                         1.17      1.17      1.25      0.01         0.01
  447                         0.86      0.86      1.10      0.01         0.01
  57                          1.33      1.33      1.37      0.19         0.14
  246                         1.31      1.31      1.35      0.18         0.18
  157                         0.97      0.97      1.13      0.01         0.01
  24                          1.07      1.13      1.18      0.18         0.11
  201                         1.47      1.47      1.68      0.01         0.01
  339                         1.55      1.55      1.58      0.01         0.01
  295                         1.12      1.12      1.17      0.05         0.01
  2                           0.94      1.10      1.05      0.23         0.06
  46                          1.29      1.33      1.33      0.51         0.44
  383                         0.71      0.71      4.46      0.01         0.01
  235                         1.29      1.39      1.31      0.64         0.46
  168                         1.03      1.05      1.10      0.12         0.09
  13                          1.29      1.29      1.47      0.03         0.01
  112                         1.49      1.60      1.55      0.31         0.18
  266                         0.92      0.92      1.05      0.01         0.01
  284                         1.10      1.10      1.12      0.07         0.01
  454                         1.05      1.05      1.21      0.01         0.01
  35                          1.24      1.24      1.33      0.40         0.35
  179                         1.18      1.18      1.39      0.05         0.06
  367                         1.13      1.13      1.29      0.04         0.01
  350                         1.10      1.10      1.29      0.01         0.01
  483                         0.90      0.90      4.47      0.01         0.01
  233                         1.27      1.27      1.60      0.02         0.04
  232                         1.00      1.00      1.12      0.06         0.02
  267                         0.95      1.03      1.05      0.17         0.03
  223                         1.05      1.28      1.10      0.46         0.18
  369                         1.13      1.13      1.24      0.02         0.04
  373                         0.99      0.99      4.66      0.01         0.01
  270                         1.03      1.03      1.27      0.01         0.01
  269                         1.14      1.14      1.28      0.22         0.23
  

  Analysis begun on:  Wed Dec 22 20:05:13 2021
  Analysis ended on:  Wed Dec 22 20:05:14 2021
  Total elapsed time: 00:00:01