
  EPA STORM WATER MANAGEMENT MODEL - VERSION 5.1 (Build 5.3.0.dev0)
  --------------------------------------------------------------

  
  *********************************************************
  NOTE: The summary statistics displayed in this report are
  based on results found at every computational time step,  
  not just on results from each reporting time step.
  *********************************************************
  
  ****************
  Analysis Options
  ****************
  Flow Units ............... CMS
  Process Models:
    Rainfall/Runoff ........ YES
    RDII ................... NO
    Snowmelt ............... NO
    Groundwater ............ NO
    Flow Routing ........... YES
    Ponding Allowed ........ YES
    Water Quality .......... NO
  Infiltration Method ...... HORTON
  Flow Routing Method ...... DYNWAVE
  Surcharge Method ......... EXTRAN
  Starting Date ............ 12/15/2017 00:00:00
  Ending Date .............. 12/15/2017 06:00:00
  Antecedent Dry Days ...... 0.0
  Report Time Step ......... 00:01:00
  Wet Time Step ............ 00:01:00
  Dry Time Step ............ 06:00:00
  Routing Time Step ........ 30.00 sec
  Variable Time Step ....... YES
  Maximum Trials ........... 8
  Number of Threads ........ 1
  Head Tolerance ........... 0.001500 m
  
  
  **************************        Volume         Depth
  Runoff Quantity Continuity     hectare-m            mm
  **************************     ---------       -------
  Total Precipitation ......        11.436        23.286
  Evaporation Loss .........         0.000         0.000
  Infiltration Loss ........         1.331         2.710
  Surface Runoff ...........         8.976        18.277
  Final Storage ............         1.130         2.300
  Continuity Error (%) .....        -0.011
  
  
  **************************        Volume        Volume
  Flow Routing Continuity        hectare-m      10^6 ltr
  **************************     ---------     ---------
  Dry Weather Inflow .......         0.000         0.000
  Wet Weather Inflow .......         8.977        89.767
  Groundwater Inflow .......         0.000         0.000
  RDII Inflow ..............         0.000         0.000
  External Inflow ..........         0.000         0.000
  External Outflow .........         8.923        89.227
  Flooding Loss ............         0.000         0.000
  Evaporation Loss .........         0.000         0.000
  Exfiltration Loss ........         0.000         0.000
  Initial Stored Volume ....         0.000         0.000
  Final Stored Volume ......         0.047         0.473
  Continuity Error (%) .....         0.074
  
  
  *************************
  Highest Continuity Errors
  *************************
  Node 247 (-16.80%)
  Node 302 (6.94%)
  Node 24 (6.62%)
  Node 227 (3.34%)
  Node 43 (3.15%)
  
  
  ***************************
  Time-Step Critical Elements
  ***************************
  Link 26 (40.23%)
  Link 223 (9.61%)
  Link 163 (8.64%)
  Link 123 (5.45%)
  Link 136 (1.94%)
  
  
  ********************************
  Highest Flow Instability Indexes
  ********************************
  Link 85 (23)
  Link 86 (21)
  Link 244 (20)
  Link 343 (17)
  Link 364 (16)
  
  
  *************************
  Routing Time Step Summary
  *************************
  Minimum Time Step           :     0.65 sec
  Average Time Step           :    10.15 sec
  Maximum Time Step           :    30.00 sec
  Percent in Steady State     :     0.61
  Average Iterations per Step :     4.82
  Percent Not Converging      :    35.26
  
  
  ***************************
  Subcatchment Runoff Summary
  ***************************
  
  ------------------------------------------------------------------------------------------------------------------------------
                            Total      Total      Total      Total     Imperv       Perv      Total       Total     Peak  Runoff
                           Precip      Runon       Evap      Infil     Runoff     Runoff     Runoff      Runoff   Runoff   Coeff
  Subcatchment                 mm         mm         mm         mm         mm         mm         mm    10^6 ltr      CMS
  ------------------------------------------------------------------------------------------------------------------------------
  532                       23.29       0.00       0.00       2.46      17.57       1.12      18.69        0.39     0.16   0.803
  533                       23.29       0.00       0.00       2.46      17.57       1.12      18.69        0.27     0.11   0.803
  534                       23.29       0.00       0.00       2.46      17.57       1.12      18.69        0.31     0.12   0.803
  535                       23.29       0.00       0.00       2.46      17.57       1.12      18.69        0.37     0.15   0.803
  536                       23.29       0.00       0.00       2.46      17.57       1.12      18.69        0.35     0.14   0.803
  537                       23.29       0.00       0.00       2.46      17.57       1.12      18.69        0.34     0.14   0.803
  538                       23.29       0.00       0.00       2.46      17.57       1.12      18.69        0.33     0.14   0.803
  539                       23.29       0.00       0.00       2.46      17.57       1.12      18.69        0.32     0.13   0.803
  540                       23.29       0.00       0.00       2.46      17.57       1.12      18.69        0.60     0.24   0.803
  541                       23.29       0.00       0.00       2.46      17.57       1.12      18.69        0.58     0.24   0.803
  542                       23.29       0.00       0.00       2.46      17.57       1.12      18.69        0.28     0.12   0.803
  543                       23.29       0.00       0.00       2.46      17.57       1.12      18.69        0.47     0.19   0.803
  544                       23.29       0.00       0.00       2.46      17.57       1.12      18.69        1.08     0.44   0.803
  545                       23.29       0.00       0.00       2.46      17.57       1.12      18.69        0.44     0.18   0.803
  546                       23.29       0.00       0.00       2.46      17.57       1.12      18.69        0.43     0.18   0.803
  547                       23.29       0.00       0.00       2.46      17.57       1.12      18.69        0.38     0.15   0.803
  548                       23.29       0.00       0.00       2.46      17.57       1.12      18.69        0.31     0.12   0.803
  549                       23.29       0.00       0.00       2.46      17.57       1.12      18.69        0.43     0.18   0.803
  550                       23.29       0.00       0.00       2.46      17.57       1.12      18.69        0.44     0.18   0.803
  551                       23.29       0.00       0.00       2.46      17.57       1.12      18.69        0.21     0.09   0.803
  552                       23.29       0.00       0.00       2.46      17.57       1.12      18.69        0.22     0.09   0.803
  553                       23.29       0.00       0.00       2.46      17.57       1.12      18.69        0.21     0.09   0.803
  554                       23.29       0.00       0.00       2.46      17.57       1.12      18.69        0.21     0.09   0.803
  555                       23.29       0.00       0.00       2.46      17.57       1.12      18.69        0.21     0.09   0.803
  556                       23.29       0.00       0.00       2.46      17.57       1.12      18.69        0.21     0.09   0.803
  557                       23.29       0.00       0.00       2.46      17.57       1.12      18.69        0.21     0.09   0.803
  558                       23.29       0.00       0.00       2.46      17.57       1.12      18.69        0.43     0.17   0.803
  559                       23.29       0.00       0.00       2.46      17.57       1.12      18.69        0.22     0.09   0.803
  560                       23.29       0.00       0.00       2.46      17.57       1.12      18.69        0.41     0.17   0.803
  561                       23.29       0.00       0.00       2.46      17.57       1.12      18.69        0.43     0.18   0.803
  562                       23.29       0.00       0.00       2.46      17.57       1.12      18.69        0.37     0.15   0.803
  563                       23.29       0.00       0.00       2.46      17.57       1.12      18.69        0.67     0.27   0.803
  564                       23.29       0.00       0.00       2.46      17.57       1.12      18.69        0.63     0.26   0.803
  565                       23.29       0.00       0.00       2.46      17.57       1.12      18.69        0.60     0.25   0.803
  566                       23.29       0.00       0.00       2.46      17.57       1.12      18.69        0.53     0.22   0.803
  567                       23.29       0.00       0.00       2.46      17.57       1.12      18.69        0.48     0.19   0.803
  568                       23.29       0.00       0.00       2.46      17.57       1.12      18.69        0.43     0.18   0.803
  569                       23.29       0.00       0.00       2.46      17.57       1.12      18.69        0.44     0.18   0.803
  570                       23.29       0.00       0.00       2.46      17.57       1.12      18.69        0.38     0.15   0.803
  571                       23.29       0.00       0.00       2.46      17.57       1.12      18.69        0.66     0.27   0.803
  572                       23.29       0.00       0.00       2.46      17.57       1.12      18.69        0.31     0.12   0.803
  573                       23.29       0.00       0.00       2.46      17.57       1.12      18.69        0.30     0.12   0.803
  574                       23.29       0.00       0.00       2.46      17.57       1.12      18.69        0.29     0.12   0.803
  575                       23.29       0.00       0.00       2.46      17.57       1.12      18.69        0.27     0.11   0.803
  576                       23.29       0.00       0.00       2.46      17.57       1.12      18.69        0.26     0.11   0.803
  577                       23.29       0.00       0.00       2.46      17.57       1.12      18.69        0.24     0.10   0.803
  578                       23.29       0.00       0.00       2.46      17.57       1.12      18.69        0.24     0.10   0.803
  579                       23.29       0.00       0.00       2.46      17.57       1.12      18.69        0.45     0.18   0.803
  580                       23.29       0.00       0.00       2.46      17.57       1.12      18.69        0.21     0.08   0.803
  581                       23.29       0.00       0.00       2.46      17.57       1.12      18.69        0.37     0.15   0.803
  582                       23.29       0.00       0.00       2.46      17.57       1.12      18.69        0.33     0.14   0.803
  583                       23.29       0.00       0.00       2.46      17.57       1.12      18.69        0.57     0.23   0.803
  584                       23.29       0.00       0.00       2.46      17.57       1.12      18.69        0.56     0.23   0.803
  585                       23.29       0.00       0.00       2.46      17.57       1.12      18.69        0.49     0.20   0.803
  586                       23.29       0.00       0.00       2.46      17.57       1.12      18.69        0.36     0.15   0.803
  587                       23.29       0.00       0.00       2.46      17.57       1.12      18.69        0.35     0.14   0.803
  588                       23.29       0.00       0.00       2.46      17.57       1.12      18.69        0.36     0.14   0.803
  589                       23.29       0.00       0.00       2.46      17.57       1.12      18.69        0.35     0.14   0.803
  590                       23.29       0.00       0.00       2.46      17.57       1.12      18.69        0.35     0.14   0.803
  591                       23.29       0.00       0.00       2.46      17.57       1.12      18.69        0.36     0.15   0.803
  592                       23.29       0.00       0.00       2.46      17.57       1.12      18.69        0.36     0.15   0.803
  593                       23.29       0.00       0.00       2.46      17.57       1.12      18.69        0.37     0.15   0.803
  594                       23.29       0.00       0.00       2.46      17.57       1.12      18.69        0.36     0.15   0.803
  595                       23.29       0.00       0.00       2.46      17.57       1.12      18.69        0.37     0.15   0.803
  596                       23.29       0.00       0.00       2.46      17.57       1.12      18.69        0.37     0.15   0.803
  597                       23.29       0.00       0.00       2.46      17.57       1.12      18.69        0.37     0.15   0.803
  598                       23.29       0.00       0.00       2.46      17.57       1.12      18.69        0.38     0.16   0.803
  599                       23.29       0.00       0.00       2.46      17.57       1.12      18.69        0.39     0.16   0.803
  600                       23.29       0.00       0.00       2.46      17.57       1.12      18.69        0.38     0.16   0.803
  601                       23.29       0.00       0.00       2.46      17.57       1.12      18.69        0.40     0.16   0.803
  602                       23.29       0.00       0.00       2.46      17.57       1.12      18.69        0.39     0.16   0.803
  603                       23.29       0.00       0.00       2.46      17.57       1.12      18.69        0.40     0.16   0.803
  604                       23.29       0.00       0.00       2.46      17.57       1.12      18.69        0.41     0.17   0.803
  605                       23.29       0.00       0.00       2.46      17.57       1.12      18.69        0.38     0.15   0.803
  606                       23.29       0.00       0.00       2.46      17.57       1.12      18.69        0.39     0.16   0.803
  607                       23.29       0.00       0.00       2.46      17.57       1.12      18.69        0.40     0.16   0.803
  608                       23.29       0.00       0.00       2.46      17.57       1.12      18.69        0.51     0.21   0.803
  609                       23.29       0.00       0.00       2.46      17.57       1.12      18.69        0.52     0.21   0.803
  610                       23.29       0.00       0.00       2.46      17.57       1.12      18.69        0.40     0.16   0.803
  611                       23.29       0.00       0.00       2.46      17.57       1.12      18.69        0.40     0.16   0.803
  612                       23.29       0.00       0.00       2.46      17.57       1.12      18.69        0.43     0.18   0.803
  613                       23.29       0.00       0.00       2.46      17.57       1.12      18.69        0.34     0.14   0.803
  614                       23.29       0.00       0.00       2.46      17.57       1.12      18.69        0.54     0.22   0.803
  615                       23.29       0.00       0.00       2.46      17.57       1.12      18.69        0.67     0.27   0.803
  616                       23.29       0.00       0.00       2.46      17.57       1.12      18.69        0.34     0.14   0.803
  617                       23.29       0.00       0.00       2.46      17.57       1.12      18.69        0.33     0.14   0.803
  618                       23.29       0.00       0.00       2.46      17.57       1.12      18.69        0.34     0.14   0.803
  619                       23.29       0.00       0.00       2.46      17.57       1.12      18.69        0.34     0.14   0.803
  620                       23.29       0.00       0.00       2.46      17.57       1.12      18.69        0.33     0.14   0.803
  621                       23.29       0.00       0.00       2.46      17.57       1.12      18.69        0.34     0.14   0.803
  622                       23.29       0.00       0.00       2.46      17.57       1.12      18.69        0.33     0.14   0.803
  623                       23.29       0.00       0.00       2.46      17.57       1.12      18.69        0.34     0.14   0.803
  624                       23.29       0.00       0.00       2.46      17.57       1.12      18.69        0.34     0.14   0.803
  625                       23.29       0.00       0.00       2.46      17.57       1.12      18.69        0.34     0.14   0.803
  626                       23.29       0.00       0.00       2.46      17.57       1.12      18.69        0.34     0.14   0.803
  627                       23.29       0.00       0.00       2.46      17.57       1.12      18.69        0.34     0.14   0.803
  628                       23.29       0.00       0.00       2.46      17.57       1.12      18.69        0.34     0.14   0.803
  629                       23.29       0.00       0.00       2.46      17.57       1.12      18.69        0.35     0.14   0.803
  630                       23.29       0.00       0.00       2.46      17.57       1.12      18.69        0.33     0.13   0.803
  631                       23.29       0.00       0.00       2.46      17.57       1.12      18.69        0.34     0.14   0.803
  632                       23.29       0.00       0.00       2.46      17.57       1.12      18.69        0.34     0.14   0.803
  633                       23.29       0.00       0.00       2.46      17.57       1.12      18.69        0.36     0.15   0.803
  634                       23.29       0.00       0.00       2.46      17.57       1.12      18.69        0.33     0.14   0.803
  635                       23.29       0.00       0.00       2.46      17.57       1.12      18.69        0.33     0.14   0.803
  636                       23.29       0.00       0.00       2.46      17.57       1.12      18.69        0.32     0.13   0.803
  637                       23.29       0.00       0.00       2.46      17.57       1.12      18.69        0.36     0.15   0.803
  638                       23.29       0.00       0.00       2.46      17.57       1.12      18.69        0.54     0.22   0.803
  639                       23.29       0.00       0.00       2.46      17.57       1.12      18.69        0.42     0.17   0.803
  640                       23.29       0.00       0.00       2.46      17.57       1.12      18.69        0.34     0.14   0.803
  641                       23.29       0.00       0.00       2.46      17.57       1.12      18.69        0.59     0.24   0.803
  642                       23.29       0.00       0.00       2.46      17.57       1.12      18.69        0.33     0.13   0.803
  643                       23.29       0.00       0.00       2.46      17.57       1.12      18.69        0.33     0.14   0.803
  644                       23.29       0.00       0.00       2.46      17.57       1.12      18.69        0.33     0.14   0.803
  645                       23.29       0.00       0.00       2.46      17.57       1.12      18.69        0.33     0.13   0.803
  646                       23.29       0.00       0.00       2.46      17.57       1.12      18.69        0.33     0.13   0.803
  647                       23.29       0.00       0.00       2.46      17.57       1.12      18.69        0.33     0.13   0.803
  648                       23.29       0.00       0.00       2.46      17.57       1.12      18.69        0.33     0.13   0.803
  649                       23.29       0.00       0.00       2.46      17.57       1.12      18.69        0.33     0.13   0.803
  650                       23.29       0.00       0.00       2.46      17.57       1.12      18.69        0.32     0.13   0.803
  651                       23.29       0.00       0.00       2.46      17.57       1.12      18.69        0.33     0.13   0.803
  652                       23.29       0.00       0.00       2.46      17.57       1.12      18.69        0.33     0.13   0.803
  653                       23.29       0.00       0.00       2.46      17.57       1.12      18.69        0.33     0.13   0.803
  654                       23.29       0.00       0.00       2.46      17.57       1.12      18.69        0.33     0.13   0.803
  655                       23.29       0.00       0.00       2.46      17.57       1.12      18.69        0.33     0.13   0.803
  656                       23.29       0.00       0.00       2.46      17.57       1.12      18.69        0.33     0.13   0.803
  657                       23.29       0.00       0.00       2.46      17.57       1.12      18.69        0.33     0.13   0.803
  658                       23.29       0.00       0.00       2.46      17.57       1.12      18.69        0.33     0.13   0.803
  659                       23.29       0.00       0.00       2.46      17.57       1.12      18.69        0.33     0.13   0.803
  660                       23.29       0.00       0.00       2.46      17.57       1.12      18.69        0.33     0.13   0.803
  661                       23.29       0.00       0.00       2.46      17.57       1.12      18.69        0.33     0.14   0.803
  662                       23.29       0.00       0.00       2.46      17.57       1.12      18.69        0.50     0.20   0.803
  663                       23.29       0.00       0.00       2.46      17.57       1.12      18.69        0.33     0.14   0.803
  664                       23.29       0.00       0.00       2.46      17.57       1.12      18.69        1.57     0.64   0.803
  665                       23.29       0.00       0.00       2.46      17.57       1.12      18.69        1.42     0.58   0.803
  666                       23.29       0.00       0.00       2.46      17.57       1.12      18.69        1.12     0.46   0.803
  667                       23.29       0.00       0.00       2.46      17.57       1.12      18.69        0.60     0.24   0.803
  668                       23.29       0.00       0.00       2.46      17.57       1.12      18.69        0.49     0.20   0.803
  669                       23.29       0.00       0.00       2.46      17.57       1.12      18.69        0.50     0.20   0.803
  670                       23.29       0.00       0.00       2.46      17.57       1.12      18.69        0.49     0.20   0.803
  671                       23.29       0.00       0.00       2.46      17.57       1.12      18.69        0.49     0.20   0.803
  672                       23.29       0.00       0.00       2.46      17.57       1.12      18.69        0.75     0.30   0.803
  673                       23.29       0.00       0.00       2.46      17.57       1.12      18.69        0.64     0.26   0.803
  674                       23.29       0.00       0.00       2.46      17.57       1.12      18.69        0.93     0.38   0.803
  675                       23.29       0.00       0.00       2.46      17.57       1.12      18.69        0.88     0.36   0.803
  676                       23.29       0.00       0.00       2.46      17.57       1.12      18.69        0.85     0.35   0.803
  677                       23.29       0.00       0.00       2.46      17.57       1.12      18.69        0.75     0.30   0.803
  678                       23.29       0.00       0.00       2.46      17.57       1.12      18.69        0.77     0.31   0.803
  679                       23.29       0.00       0.00       2.46      17.57       1.12      18.69        0.66     0.27   0.803
  680                       23.29       0.00       0.00       2.46      17.57       1.12      18.69        0.28     0.11   0.803
  681                       23.29       0.00       0.00       2.46      17.57       1.12      18.69        0.50     0.21   0.803
  682                       23.29       0.00       0.00       2.46      17.57       1.12      18.69        0.41     0.17   0.803
  683                       23.29       0.00       0.00       2.46      17.57       1.12      18.69        0.41     0.17   0.803
  684                       23.29       0.00       0.00       2.46      17.57       1.12      18.69        0.66     0.27   0.803
  685                       23.29       0.00       0.00       2.46      17.57       1.12      18.69        0.63     0.26   0.803
  686                       23.29       0.00       0.00       2.46      17.57       1.12      18.69        0.80     0.32   0.803
  687                       23.29       0.00       0.00       9.86       4.43       2.50       6.93        1.25     0.44   0.297
  688                       23.29       0.00       0.00       2.46      17.57       1.12      18.69        0.37     0.15   0.803
  689                       23.29       0.00       0.00       2.46      17.57       1.12      18.69        0.35     0.14   0.803
  690                       23.29       0.00       0.00       2.46      17.57       1.12      18.69        0.87     0.35   0.803
  691                       23.29       0.00       0.00       2.46      17.57       1.12      18.69        1.11     0.45   0.803
  692                       23.29       0.00       0.00       2.46      17.57       1.12      18.69        0.62     0.25   0.803
  693                       23.29       0.00       0.00       2.46      17.57       1.12      18.69        0.63     0.26   0.803
  694                       23.29       0.00       0.00       2.46      17.57       1.12      18.69        1.14     0.46   0.803
  695                       23.29       0.00       0.00       2.46      17.57       1.12      18.69        0.25     0.10   0.803
  696                       23.29       0.00       0.00       2.46      17.57       1.12      18.69        0.34     0.14   0.803
  697                       23.29       0.00       0.00       2.46      17.57       1.12      18.69        0.40     0.16   0.803
  698                       23.29       0.00       0.00       2.46      17.57       1.12      18.69        0.69     0.28   0.803
  699                       23.29       0.00       0.00       2.46      17.57       1.12      18.69        0.54     0.22   0.803
  700                       23.29       0.00       0.00       2.46      17.57       1.12      18.69        0.68     0.28   0.803
  701                       23.29       0.00       0.00       2.46      17.57       1.12      18.69        0.51     0.21   0.803
  702                       23.29       0.00       0.00       2.46      17.57       1.12      18.69        0.31     0.13   0.803
  703                       23.29       0.00       0.00       2.46      17.57       1.12      18.69        0.49     0.20   0.803
  704                       23.29       0.00       0.00       2.46      17.57       1.12      18.69        0.50     0.21   0.803
  705                       23.29       0.00       0.00       2.46      17.57       1.12      18.69        0.27     0.11   0.803
  706                       23.29       0.00       0.00       2.46      17.57       1.12      18.69        0.22     0.09   0.803
  707                       23.29       0.00       0.00       2.46      17.57       1.12      18.69        0.44     0.18   0.803
  708                       23.29       0.00       0.00       2.46      17.57       1.12      18.69        0.61     0.25   0.803
  709                       23.29       0.00       0.00       2.46      17.57       1.12      18.69        0.29     0.12   0.803
  710                       23.29       0.00       0.00       2.46      17.57       1.12      18.69        0.19     0.08   0.803
  711                       23.29       0.00       0.00       2.46      17.57       1.12      18.69        0.16     0.06   0.803
  712                       23.29       0.00       0.00       2.46      17.57       1.12      18.69        0.46     0.19   0.803
  713                       23.29       0.00       0.00       2.46      17.57       1.12      18.69        0.19     0.08   0.803
  714                       23.29       0.00       0.00       2.46      17.57       1.12      18.69        0.19     0.08   0.803
  715                       23.29       0.00       0.00       2.46      17.57       1.12      18.69        0.19     0.08   0.803
  716                       23.29       0.00       0.00       2.46      17.57       1.12      18.69        0.19     0.08   0.803
  717                       23.29       0.00       0.00       2.46      17.57       1.12      18.69        0.19     0.08   0.803
  718                       23.29       0.00       0.00       2.46      17.57       1.12      18.69        0.28     0.11   0.803
  719                       23.29       0.00       0.00       2.46      17.57       1.12      18.69        0.28     0.11   0.803
  720                       23.29       0.00       0.00       2.46      17.57       1.12      18.69        0.28     0.11   0.803
  721                       23.29       0.00       0.00       2.46      17.57       1.12      18.69        0.28     0.11   0.803
  722                       23.29       0.00       0.00       2.46      17.57       1.12      18.69        0.28     0.11   0.803
  723                       23.29       0.00       0.00       2.46      17.57       1.12      18.69        0.28     0.11   0.803
  724                       23.29       0.00       0.00       2.46      17.57       1.12      18.69        0.28     0.11   0.803
  725                       23.29       0.00       0.00       2.46      17.57       1.12      18.69        0.28     0.11   0.803
  726                       23.29       0.00       0.00       2.46      17.57       1.12      18.69        0.28     0.11   0.803
  727                       23.29       0.00       0.00       2.46      17.57       1.12      18.69        0.28     0.11   0.803
  728                       23.29       0.00       0.00       2.46      17.57       1.12      18.69        0.28     0.11   0.803
  729                       23.29       0.00       0.00       2.46      17.57       1.12      18.69        0.28     0.11   0.803
  730                       23.29       0.00       0.00       2.46      17.57       1.12      18.69        0.28     0.11   0.803
  731                       23.29       0.00       0.00       2.46      17.57       1.12      18.69        0.28     0.11   0.803
  732                       23.29       0.00       0.00       2.46      17.57       1.12      18.69        0.28     0.11   0.803
  733                       23.29       0.00       0.00       2.46      17.57       1.12      18.69        0.28     0.11   0.803
  734                       23.29       0.00       0.00       2.46      17.57       1.12      18.69        0.28     0.11   0.803
  735                       23.29       0.00       0.00       2.46      17.57       1.12      18.69        0.28     0.11   0.803
  736                       23.29       0.00       0.00       2.46      17.57       1.12      18.69        0.28     0.11   0.803
  737                       23.29       0.00       0.00       2.46      17.57       1.12      18.69        0.28     0.11   0.803
  738                       23.29       0.00       0.00       2.46      17.57       1.12      18.69        0.28     0.11   0.803
  739                       23.29       0.00       0.00       2.46      17.57       1.12      18.69        0.28     0.11   0.803
  740                       23.29       0.00       0.00       2.46      17.57       1.12      18.69        0.28     0.11   0.803
  741                       23.29       0.00       0.00       2.46      17.57       1.12      18.69        0.28     0.11   0.803
  742                       23.29       0.00       0.00       2.46      17.57       1.12      18.69        0.28     0.11   0.803
  743                       23.29       0.00       0.00       2.46      17.57       1.12      18.69        0.28     0.11   0.803
  744                       23.29       0.00       0.00       2.46      17.57       1.12      18.69        0.19     0.08   0.803
  745                       23.29       0.00       0.00       0.00      17.57       2.81      20.37        0.31     0.12   0.875
  746                       23.29       0.00       0.00       0.00      17.57       2.81      20.37        0.31     0.12   0.875
  747                       23.29       0.00       0.00       0.00      17.57       2.81      20.37        0.41     0.16   0.875
  
  
  ******************
  Node Depth Summary
  ******************
  
  ---------------------------------------------------------------------------------
                                 Average  Maximum  Maximum  Time of Max    Reported
                                   Depth    Depth      HGL   Occurrence   Max Depth
  Node                 Type       Meters   Meters   Meters  days hr:min      Meters
  ---------------------------------------------------------------------------------
  1                    JUNCTION     0.50     1.41    18.26     0  01:52        1.41
  2                    JUNCTION     0.93     2.92    18.15     0  01:59        2.92
  3                    JUNCTION     0.46     1.64    18.14     0  02:01        1.64
  4                    JUNCTION     0.53     1.94    18.10     0  02:04        1.94
  5                    JUNCTION     0.55     1.99    18.10     0  02:04        1.99
  6                    JUNCTION     0.66     2.29    18.09     0  02:02        2.29
  7                    JUNCTION     0.74     2.53    18.07     0  02:01        2.53
  8                    JUNCTION     1.13     3.48    18.07     0  01:59        3.48
  9                    JUNCTION     1.10     3.40    18.08     0  01:58        3.40
  10                   JUNCTION     0.37     1.32    18.17     0  02:02        1.32
  11                   JUNCTION     0.50     1.56    18.18     0  02:01        1.56
  12                   JUNCTION     0.39     1.34    18.19     0  01:52        1.34
  13                   JUNCTION     0.50     1.62    18.19     0  01:55        1.62
  14                   JUNCTION     0.52     1.76    18.12     0  01:59        1.76
  15                   JUNCTION     0.59     2.03    18.06     0  01:58        2.03
  16                   JUNCTION     0.62     2.15    18.04     0  01:57        2.15
  17                   JUNCTION     0.66     2.29    18.03     0  01:53        2.29
  18                   JUNCTION     0.76     2.57    18.02     0  01:52        2.57
  19                   JUNCTION     0.82     2.86    18.00     0  01:41        2.85
  20                   JUNCTION     0.88     3.09    18.00     0  01:48        3.09
  21                   JUNCTION     0.23     1.17    18.02     0  01:49        1.17
  22                   JUNCTION     0.25     1.44    18.00     0  01:54        1.44
  23                   JUNCTION     0.20     1.16    18.01     0  01:55        1.16
  24                   JUNCTION     0.29     1.50    18.06     0  01:57        1.50
  25                   JUNCTION     0.32     1.27    18.12     0  02:01        1.27
  26                   JUNCTION     0.51     1.68    18.19     0  01:53        1.68
  27                   JUNCTION     0.52     1.77    18.15     0  01:59        1.77
  28                   JUNCTION     0.58     1.83    18.16     0  02:04        1.83
  29                   JUNCTION     0.75     2.29    18.13     0  01:59        2.29
  30                   JUNCTION     0.86     2.64    18.12     0  02:00        2.64
  31                   JUNCTION     0.63     2.03    18.15     0  01:55        2.03
  32                   JUNCTION     0.65     2.28    18.08     0  01:55        2.28
  33                   JUNCTION     0.69     2.45    18.04     0  01:53        2.45
  34                   JUNCTION     0.78     2.88    18.00     0  01:49        2.88
  35                   JUNCTION     0.82     3.01    18.00     0  01:48        3.01
  36                   JUNCTION     0.33     1.61    18.00     0  01:35        1.60
  37                   JUNCTION     0.93     3.24    17.99     0  01:42        3.23
  38                   JUNCTION     1.31     4.07    17.94     0  01:48        4.07
  39                   JUNCTION     1.14     3.78    17.95     0  01:48        3.78
  40                   JUNCTION     1.09     3.70    17.97     0  01:48        3.69
  41                   JUNCTION     0.90     3.25    17.98     0  01:49        3.25
  42                   JUNCTION     0.26     1.37    18.00     0  01:52        1.37
  43                   JUNCTION     0.49     1.70    18.05     0  01:50        1.70
  44                   JUNCTION     0.88     2.86    18.05     0  01:55        2.86
  45                   JUNCTION     1.42     4.04    18.03     0  01:58        4.04
  46                   JUNCTION     1.21     3.65    18.06     0  02:00        3.65
  47                   JUNCTION     1.51     4.22    18.00     0  01:56        4.22
  48                   JUNCTION     1.58     4.39    17.96     0  01:53        4.38
  49                   JUNCTION     0.36     1.80    18.00     0  01:35        1.78
  50                   JUNCTION     0.43     1.66    18.00     0  01:49        1.66
  51                   JUNCTION     0.54     1.88    18.04     0  01:48        1.88
  52                   JUNCTION     0.55     2.04    17.97     0  01:48        2.04
  53                   JUNCTION     0.71     2.64    17.94     0  01:44        2.62
  54                   JUNCTION     0.48     1.75    17.95     0  01:44        1.74
  55                   JUNCTION     0.30     1.36    17.98     0  01:47        1.35
  56                   JUNCTION     0.36     1.23    18.03     0  01:50        1.23
  57                   JUNCTION     1.87     4.93    17.87     0  01:50        4.93
  58                   JUNCTION     1.80     4.81    17.91     0  01:50        4.80
  59                   JUNCTION     1.71     4.64    17.93     0  01:50        4.64
  60                   JUNCTION     1.35     4.13    17.92     0  01:48        4.13
  61                   JUNCTION     1.38     4.18    17.89     0  01:48        4.18
  62                   JUNCTION     1.40     4.22    17.86     0  01:48        4.21
  63                   JUNCTION     1.58     4.54    17.81     0  01:48        4.54
  64                   JUNCTION     1.61     4.59    17.80     0  01:49        4.59
  65                   JUNCTION     1.67     4.67    17.76     0  01:49        4.67
  66                   JUNCTION     1.64     4.63    17.78     0  01:49        4.63
  67                   JUNCTION     1.70     4.71    17.74     0  01:48        4.71
  68                   JUNCTION     1.73     4.75    17.72     0  01:49        4.75
  69                   JUNCTION     1.75     4.78    17.69     0  01:50        4.78
  70                   JUNCTION     1.78     4.82    17.67     0  01:50        4.82
  71                   JUNCTION     1.80     4.85    17.64     0  01:50        4.85
  72                   JUNCTION     1.30     4.04    17.57     0  01:50        4.04
  73                   JUNCTION     1.11     3.67    17.68     0  01:52        3.66
  74                   JUNCTION     1.02     3.48    17.75     0  01:48        3.48
  75                   JUNCTION     0.98     3.38    17.78     0  01:48        3.38
  76                   JUNCTION     0.91     3.20    17.85     0  01:44        3.16
  77                   JUNCTION     0.87     3.11    17.88     0  01:44        3.07
  78                   JUNCTION     0.83     3.00    17.91     0  01:44        2.97
  79                   JUNCTION     0.79     2.88    17.91     0  01:44        2.86
  80                   JUNCTION     0.75     2.76    17.92     0  01:44        2.75
  81                   JUNCTION     0.27     1.33    17.95     0  01:44        1.32
  82                   JUNCTION     0.35     1.57    17.95     0  01:44        1.55
  83                   JUNCTION     0.47     1.81    17.96     0  01:44        1.79
  84                   JUNCTION     0.58     2.05    17.92     0  01:44        2.04
  85                   JUNCTION     0.63     2.20    17.87     0  01:46        2.19
  86                   JUNCTION     0.74     2.48    17.88     0  01:46        2.45
  87                   JUNCTION     0.78     2.67    17.77     0  01:46        2.66
  88                   JUNCTION     0.87     2.94    17.70     0  01:47        2.94
  89                   JUNCTION     0.31     1.32    17.77     0  01:48        1.27
  90                   JUNCTION     0.36     1.47    17.68     0  01:48        1.47
  91                   JUNCTION     0.38     1.55    17.65     0  01:49        1.54
  92                   JUNCTION     0.47     1.92    17.55     0  01:49        1.91
  93                   JUNCTION     1.49     4.35    17.55     0  01:52        4.35
  94                   JUNCTION     1.83     4.88    17.61     0  01:52        4.88
  95                   JUNCTION     0.35     1.49    17.54     0  01:52        1.48
  96                   JUNCTION     0.39     1.59    17.51     0  01:50        1.59
  97                   JUNCTION     0.18     1.02    17.52     0  01:48        1.01
  98                   JUNCTION     0.32     1.40    17.31     0  01:52        1.40
  99                   JUNCTION     0.22     1.09    17.34     0  01:50        1.09
  100                  JUNCTION     0.40     1.53    17.77     0  01:34        1.53
  101                  JUNCTION     0.30     1.50    18.00     0  01:33        1.50
  102                  JUNCTION     0.53     1.85    18.07     0  01:44        1.84
  103                  JUNCTION     0.48     1.75    18.12     0  01:45        1.75
  104                  JUNCTION     0.52     1.83    18.11     0  01:47        1.83
  105                  JUNCTION     0.44     1.63    18.13     0  01:48        1.63
  106                  JUNCTION     0.52     1.84    18.13     0  01:47        1.84
  107                  JUNCTION     0.40     1.62    18.12     0  01:54        1.62
  108                  JUNCTION     0.37     1.51    18.12     0  01:50        1.51
  109                  JUNCTION     0.57     1.95    18.12     0  01:45        1.95
  110                  JUNCTION     0.29     1.45    18.01     0  01:43        1.45
  111                  JUNCTION     0.60     2.21    18.01     0  01:40        2.21
  112                  JUNCTION     0.71     2.57    18.00     0  01:32        2.56
  113                  JUNCTION     0.60     2.16    17.98     0  01:34        2.13
  114                  JUNCTION     0.63     2.27    17.89     0  01:34        2.23
  115                  JUNCTION     0.55     1.95    17.84     0  01:37        1.95
  116                  JUNCTION     0.21     1.00    17.61     0  01:45        1.00
  117                  JUNCTION     0.52     1.88    17.63     0  01:46        1.88
  118                  JUNCTION     0.30     1.39    18.00     0  01:28        1.38
  119                  JUNCTION     0.38     1.65    17.19     0  01:52        1.65
  120                  JUNCTION     1.92     4.96    17.40     0  01:53        4.96
  121                  JUNCTION     1.93     4.97    17.44     0  01:53        4.97
  122                  JUNCTION     1.92     4.99    17.51     0  01:52        4.99
  123                  JUNCTION     1.51     4.37    17.53     0  01:52        4.37
  124                  JUNCTION     1.96     5.07    17.80     0  01:50        5.06
  125                  JUNCTION     0.72     2.27    17.93     0  01:45        2.27
  126                  JUNCTION     0.83     2.47    17.93     0  01:45        2.47
  127                  JUNCTION     0.88     2.59    17.94     0  01:45        2.59
  128                  JUNCTION     1.09     2.98    18.04     0  01:31        2.98
  129                  JUNCTION     1.17     3.14    18.00     0  01:24        3.08
  130                  JUNCTION     1.18     3.30    18.00     0  01:24        3.14
  131                  JUNCTION     1.16     3.31    17.86     0  01:29        3.21
  132                  JUNCTION     1.16     3.38    17.78     0  01:29        3.32
  133                  JUNCTION     1.28     3.68    17.66     0  01:49        3.67
  134                  JUNCTION     1.30     3.75    17.63     0  01:49        3.74
  135                  JUNCTION     1.31     3.81    17.58     0  01:50        3.81
  136                  JUNCTION     1.32     3.87    17.54     0  01:50        3.87
  137                  JUNCTION     1.33     3.92    17.48     0  01:50        3.92
  138                  JUNCTION     1.34     3.95    17.41     0  01:50        3.94
  139                  JUNCTION     1.32     3.94    17.29     0  01:50        3.93
  140                  JUNCTION     1.94     4.91    17.15     0  01:52        4.90
  141                  JUNCTION     1.91     4.83    17.02     0  01:52        4.83
  142                  JUNCTION     0.70     2.25    18.14     0  01:57        2.25
  143                  JUNCTION     0.60     2.14    17.26     0  01:49        2.14
  144                  JUNCTION     0.05     0.37    16.50     0  01:49        0.37
  145                  JUNCTION     0.58     2.61    18.00     0  01:29        2.13
  146                  JUNCTION     0.77     2.76    17.73     0  01:30        2.68
  147                  JUNCTION     0.35     1.91    18.00     0  01:30        1.57
  148                  JUNCTION     0.65     2.42    17.36     0  01:41        2.42
  149                  JUNCTION     0.29     1.91    18.00     0  01:32        1.54
  150                  JUNCTION     0.51     2.12    17.93     0  01:33        2.10
  151                  JUNCTION     0.72     2.48    18.01     0  01:28        2.48
  152                  JUNCTION     0.82     2.42    18.07     0  01:45        2.42
  153                  JUNCTION     0.61     2.04    18.10     0  01:52        2.04
  154                  JUNCTION     0.89     2.40    18.12     0  01:55        2.40
  155                  JUNCTION     0.92     2.36    18.15     0  02:02        2.36
  156                  JUNCTION     0.74     1.92    18.19     0  01:59        1.92
  157                  JUNCTION     0.47     1.53    18.15     0  01:59        1.53
  158                  JUNCTION     0.50     1.64    18.14     0  01:57        1.64
  159                  JUNCTION     0.55     1.79    18.16     0  01:48        1.79
  160                  JUNCTION     0.65     1.99    18.16     0  01:47        1.99
  161                  JUNCTION     2.04     5.18    17.69     0  01:52        5.18
  162                  JUNCTION     2.08     5.24    17.64     0  01:58        5.24
  163                  JUNCTION     2.10     5.28    17.60     0  01:58        5.28
  164                  JUNCTION     2.13     5.32    17.56     0  01:56        5.32
  165                  JUNCTION     2.15     5.36    17.51     0  01:55        5.36
  166                  JUNCTION     2.17     5.38    17.46     0  01:55        5.38
  167                  JUNCTION     2.19     5.41    17.41     0  01:54        5.41
  168                  JUNCTION     2.20     5.42    17.34     0  01:54        5.42
  169                  JUNCTION     2.21     5.43    17.27     0  01:54        5.43
  170                  JUNCTION     2.22     5.44    17.20     0  01:53        5.44
  171                  JUNCTION     2.23     5.44    17.12     0  01:53        5.44
  172                  JUNCTION     2.24     5.43    17.03     0  01:53        5.43
  173                  JUNCTION     2.25     5.42    16.94     0  01:54        5.42
  174                  JUNCTION     2.25     5.40    16.84     0  01:54        5.40
  175                  JUNCTION     2.26     5.39    16.74     0  01:53        5.39
  176                  JUNCTION     2.26     5.37    16.65     0  01:53        5.37
  177                  JUNCTION     2.50     5.64    16.54     0  01:53        5.63
  178                  JUNCTION     1.00     3.00    18.24     0  01:49        3.00
  179                  JUNCTION     0.72     2.37    16.93     0  01:49        2.37
  180                  JUNCTION     0.05     0.33    15.80     0  01:54        0.33
  181                  JUNCTION     0.53     2.04    17.00     0  01:36        2.02
  182                  JUNCTION     0.74     2.99    17.39     0  01:37        2.90
  183                  JUNCTION     0.10     1.15    18.00     0  01:32        0.72
  184                  JUNCTION     0.46     1.58    16.10     0  01:43        1.58
  185                  JUNCTION     0.11     1.15    18.00     0  01:33        1.09
  186                  JUNCTION     0.50     1.83    16.98     0  01:38        1.82
  187                  JUNCTION     0.94     2.50    16.70     0  01:35        2.50
  188                  JUNCTION     1.14     3.41    17.80     0  01:28        3.14
  189                  JUNCTION     1.21     3.30    17.95     0  01:34        3.29
  190                  JUNCTION     1.13     2.92    18.10     0  01:48        2.92
  191                  JUNCTION     1.05     2.63    18.12     0  01:56        2.63
  192                  JUNCTION     0.52     1.76    18.15     0  02:11        1.76
  193                  JUNCTION     0.73     2.32    18.12     0  02:02        2.32
  194                  JUNCTION     1.20     3.22    18.10     0  01:59        3.22
  195                  JUNCTION     0.38     1.29    18.14     0  01:50        1.29
  196                  JUNCTION     0.54     1.77    18.15     0  01:46        1.77
  197                  JUNCTION     0.70     2.18    18.10     0  01:56        2.18
  198                  JUNCTION     1.40     3.64    18.06     0  01:54        3.64
  199                  JUNCTION     1.53     3.95    18.02     0  01:44        3.95
  200                  JUNCTION     0.69     2.14    18.18     0  01:46        2.14
  201                  JUNCTION     0.55     1.73    18.21     0  01:48        1.73
  202                  JUNCTION     0.42     1.40    18.20     0  01:41        1.40
  203                  JUNCTION     0.22     1.18    17.71     0  01:34        1.17
  204                  JUNCTION     0.35     1.98    18.00     0  01:26        1.98
  205                  JUNCTION     1.35     4.18    18.00     0  01:27        3.81
  206                  JUNCTION     1.09     3.84    17.38     0  01:32        3.78
  207                  JUNCTION     0.15     1.66    18.00     0  01:28        1.47
  208                  JUNCTION     0.04     1.15    18.00     0  01:32        1.15
  209                  JUNCTION     0.64     1.52    15.54     0  01:39        1.52
  210                  JUNCTION     0.40     1.71    18.09     0  01:41        1.71
  211                  JUNCTION     0.23     0.83    16.57     0  01:24        0.80
  212                  JUNCTION     0.65     2.28    15.40     0  01:33        2.28
  213                  JUNCTION     0.48     1.37    14.22     0  01:33        1.37
  214                  JUNCTION     0.00     0.00    16.18     0  00:00        0.00
  215                  JUNCTION     0.50     1.04    14.53     0  01:40        1.04
  216                  JUNCTION     0.00     0.00    16.85     0  00:00        0.00
  217                  JUNCTION     0.51     0.98    14.01     0  01:39        0.98
  218                  JUNCTION     0.51     1.01    13.61     0  01:33        1.01
  219                  JUNCTION     0.50     0.96    13.44     0  01:33        0.96
  220                  JUNCTION     0.57     1.11    12.87     0  01:30        1.11
  221                  JUNCTION     0.65     1.31    12.51     0  01:36        1.31
  222                  JUNCTION     0.38     1.17    14.89     0  01:32        1.16
  223                  JUNCTION     0.44     1.52    15.56     0  01:32        1.52
  224                  JUNCTION     0.44     1.58    15.93     0  01:35        1.58
  225                  JUNCTION     0.05     0.32    15.15     0  01:59        0.32
  226                  JUNCTION     0.05     0.32    14.61     0  02:00        0.32
  227                  JUNCTION     0.05     0.31    14.07     0  02:05        0.31
  228                  JUNCTION     0.63     1.31    12.45     0  01:41        1.31
  229                  JUNCTION     0.61     1.90    15.91     0  01:53        1.90
  230                  JUNCTION     0.52     4.47    18.00     0  01:23        1.52
  231                  JUNCTION     0.44     2.49    15.55     0  01:23        1.21
  232                  JUNCTION     0.68     1.40    12.39     0  01:42        1.40
  233                  JUNCTION     1.19     3.60    18.20     0  01:45        3.60
  234                  JUNCTION     0.77     2.82    16.79     0  01:30        2.82
  235                  JUNCTION     0.46     1.52    14.99     0  01:30        1.52
  236                  JUNCTION     0.67     1.41    12.33     0  01:46        1.41
  237                  JUNCTION     2.34     5.03    15.55     0  01:54        5.03
  238                  JUNCTION     1.94     4.09    14.45     0  01:53        4.08
  239                  JUNCTION     1.56     3.17    13.39     0  01:52        3.17
  240                  JUNCTION     1.45     2.70    12.27     0  01:46        2.70
  241                  JUNCTION     1.71     4.21    15.77     0  01:58        4.21
  242                  JUNCTION     0.08     0.26    16.44     0  01:30        0.26
  243                  JUNCTION     0.12     0.39    15.81     0  01:30        0.39
  244                  JUNCTION     0.00     0.00    16.65     0  00:00        0.00
  245                  JUNCTION     0.76     1.94    13.66     0  01:42        1.94
  246                  JUNCTION     1.70     4.24    15.95     0  02:00        4.24
  247                  JUNCTION     0.04     0.92    17.29     0  01:38        0.47
  248                  JUNCTION     0.90     3.60    17.09     0  01:32        3.34
  249                  JUNCTION     0.76     2.72    15.80     0  01:42        2.72
  250                  JUNCTION     1.07     3.04    14.87     0  01:43        3.03
  251                  JUNCTION     1.69     4.29    16.14     0  02:01        4.29
  252                  JUNCTION     0.19     1.56    17.93     0  01:34        1.51
  253                  JUNCTION     0.97     3.78    17.42     0  01:32        3.58
  254                  JUNCTION     1.68     4.33    16.34     0  02:02        4.33
  255                  JUNCTION     0.45     1.81    18.18     0  01:42        1.81
  256                  JUNCTION     1.01     3.85    17.76     0  01:32        3.74
  257                  JUNCTION     0.31     1.79    18.06     0  01:32        1.79
  258                  JUNCTION     1.20     3.73    15.83     0  01:44        3.73
  259                  JUNCTION     1.67     4.38    16.54     0  02:02        4.38
  260                  JUNCTION     0.28     1.68    18.01     0  01:29        1.68
  261                  JUNCTION     1.01     3.89    18.00     0  01:28        3.78
  262                  JUNCTION     0.00     0.00    16.85     0  00:00        0.00
  263                  JUNCTION     1.26     3.96    16.19     0  01:43        3.96
  264                  JUNCTION     1.67     4.43    16.74     0  02:00        4.43
  265                  JUNCTION     0.86     3.32    18.08     0  01:46        3.32
  266                  JUNCTION     1.02     3.78    18.04     0  01:37        3.78
  267                  JUNCTION     0.97     3.51    17.09     0  01:45        3.51
  268                  JUNCTION     1.30     4.13    16.51     0  01:45        4.13
  269                  JUNCTION     1.64     4.44    16.91     0  02:00        4.44
  270                  JUNCTION     1.62     4.47    17.09     0  01:59        4.47
  271                  JUNCTION     0.70     2.74    18.09     0  01:45        2.74
  272                  JUNCTION     0.14     1.73    18.00     0  01:34        1.73
  273                  JUNCTION     1.02     3.75    17.54     0  01:35        3.75
  274                  JUNCTION     1.11     3.88    17.13     0  01:46        3.86
  275                  JUNCTION     1.60     4.49    17.25     0  01:59        4.49
  276                  JUNCTION     1.54     4.47    17.37     0  01:58        4.46
  277                  JUNCTION     1.40     4.29    17.47     0  01:59        4.29
  278                  JUNCTION     1.32     4.18    17.56     0  01:59        4.18
  279                  JUNCTION     0.49     1.91    18.13     0  01:45        1.91
  280                  JUNCTION     0.53     2.11    18.13     0  01:47        2.11
  281                  JUNCTION     0.92     3.55    18.05     0  01:41        3.55
  282                  JUNCTION     0.57     2.47    18.16     0  01:46        2.47
  283                  JUNCTION     0.58     2.54    18.03     0  01:50        2.54
  284                  JUNCTION     0.14     1.47    18.00     0  01:33        1.39
  285                  JUNCTION     1.02     3.80    17.77     0  01:34        3.80
  286                  JUNCTION     1.02     3.91    17.96     0  01:30        3.82
  287                  JUNCTION     1.00     3.84    18.01     0  01:30        3.77
  288                  JUNCTION     0.98     3.71    18.01     0  01:30        3.69
  289                  JUNCTION     0.27     1.47    18.03     0  01:46        1.47
  290                  JUNCTION     1.00     3.80    18.00     0  01:48        3.80
  291                  JUNCTION     1.11     4.10    18.00     0  01:47        4.09
  292                  JUNCTION     1.15     4.20    17.88     0  01:46        4.19
  293                  JUNCTION     1.14     4.17    17.71     0  01:46        4.17
  294                  JUNCTION     0.81     3.23    18.01     0  01:49        3.23
  295                  JUNCTION     0.15     1.19    18.04     0  01:47        1.19
  296                  JUNCTION     0.85     3.40    18.07     0  01:42        3.40
  297                  JUNCTION     0.79     3.24    18.09     0  01:39        3.24
  298                  JUNCTION     0.19     1.15    18.00     0  01:32        1.15
  299                  JUNCTION     1.24     4.02    17.59     0  01:58        4.01
  300                  JUNCTION     1.15     3.86    17.63     0  01:58        3.85
  301                  JUNCTION     1.05     3.68    17.65     0  01:58        3.68
  302                  JUNCTION     0.88     3.34    17.69     0  01:59        3.34
  303                  JUNCTION     0.25     1.66    18.00     0  01:31        1.66
  304                  JUNCTION     0.52     2.44    18.10     0  01:36        2.44
  305                  JUNCTION     0.42     2.05    18.13     0  01:47        2.05
  306                  JUNCTION     0.64     2.76    18.03     0  01:55        2.76
  307                  JUNCTION     0.42     1.52    18.19     0  01:49        1.52
  308                  JUNCTION     0.63     2.22    18.15     0  01:56        2.22
  309                  JUNCTION     0.35     1.30    18.15     0  02:00        1.30
  310                  JUNCTION     0.44     1.51    18.18     0  01:47        1.51
  311                  JUNCTION     0.40     1.40    18.20     0  01:47        1.40
  312                  JUNCTION     0.28     1.28    18.13     0  01:57        1.28
  313                  JUNCTION     0.34     1.31    18.16     0  01:50        1.31
  314                  JUNCTION     0.36     1.38    18.18     0  01:48        1.38
  315                  JUNCTION     0.34     1.35    18.15     0  01:48        1.35
  316                  JUNCTION     0.38     1.49    18.16     0  01:45        1.49
  317                  JUNCTION     0.39     1.52    18.32     0  01:43        1.52
  318                  JUNCTION     0.19     1.15    18.00     0  01:32        1.15
  319                  JUNCTION     0.17     1.15    18.00     0  01:33        1.15
  320                  JUNCTION     0.17     0.93    17.78     0  01:30        0.93
  321                  JUNCTION     0.13     0.94    17.61     0  01:47        0.68
  322                  JUNCTION     0.16     0.90    17.70     0  01:48        0.88
  323                  JUNCTION     0.07     1.15    18.00     0  01:43        0.66
  324                  JUNCTION     0.16     0.94    17.74     0  01:43        0.94
  325                  JUNCTION     0.16     1.00    17.80     0  01:42        0.83
  326                  JUNCTION     0.15     0.98    17.78     0  01:41        0.85
  327                  JUNCTION     0.20     1.01    17.68     0  01:50        1.00
  328                  JUNCTION     0.19     1.03    17.70     0  01:49        1.03
  329                  JUNCTION     0.10     1.15    18.00     0  01:40        0.86
  330                  JUNCTION     0.23     1.11    17.78     0  01:48        1.10
  331                  JUNCTION     0.11     1.15    18.00     0  01:40        0.90
  332                  JUNCTION     0.18     1.00    17.80     0  01:49        0.99
  333                  JUNCTION     0.12     1.11    17.96     0  01:39        0.94
  334                  JUNCTION     0.12     1.15    18.00     0  01:39        0.96
  335                  JUNCTION     0.19     1.07    17.87     0  01:48        1.06
  336                  JUNCTION     0.22     1.15    18.00     0  01:47        1.15
  337                  JUNCTION     0.45     1.54    18.21     0  01:49        1.54
  338                  JUNCTION     0.26     1.25    18.10     0  02:06        1.25
  339                  JUNCTION     0.34     1.28    18.13     0  02:05        1.28
  340                  JUNCTION     0.38     1.33    18.18     0  02:01        1.33
  341                  JUNCTION     0.31     1.31    18.16     0  02:10        1.31
  342                  JUNCTION     0.21     1.16    18.01     0  01:39        1.16
  343                  JUNCTION     0.16     1.16    18.01     0  01:48        1.16
  344                  JUNCTION     0.05     1.15    18.00     0  02:09        1.15
  345                  JUNCTION     0.14     1.18    18.03     0  01:57        1.18
  346                  JUNCTION     0.05     1.15    18.00     0  01:46        1.15
  348                  JUNCTION     0.00     0.00    16.85     0  00:00        0.00
  349                  JUNCTION     0.10     1.15    18.00     0  01:30        1.09
  350                  JUNCTION     0.35     1.30    18.15     0  02:10        1.30
  z_0512_001_016       JUNCTION     0.02     0.38    17.23     0  01:52        0.35
  z_0512_001_025       JUNCTION     0.01     0.20    17.05     0  01:52        0.20
  z_0512_001_026       JUNCTION     0.33     1.29    18.14     0  01:54        1.29
  z_0512_001_027       JUNCTION     0.05     0.42    17.27     0  01:42        0.41
  z_0512_001_028       JUNCTION     0.00     0.00    16.85     0  00:00        0.00
  z_0512_001_029       JUNCTION     0.07     1.15    18.00     0  01:29        0.68
  z_0512_001_057       JUNCTION     0.01     0.07    16.92     0  02:03        0.07
  z_0512_001_059       JUNCTION     0.00     0.00    16.85     0  00:00        0.00
  z_0512_001_062       JUNCTION     0.00     0.00    16.85     0  00:00        0.00
  z_0512_001_064       JUNCTION     0.00     0.00    16.85     0  00:00        0.00
  z_0512_001_066       JUNCTION     0.00     0.00    16.85     0  00:00        0.00
  z_0512_001_068       JUNCTION     0.00     0.00    16.85     0  00:00        0.00
  z_0512_001_069       JUNCTION     0.02     1.09    17.94     0  01:54        0.34
  z_0512_001_070       JUNCTION     0.00     0.00    16.85     0  00:00        0.00
  z_0512_001_071       JUNCTION     0.34     1.40    18.25     0  01:50        1.40
  z_0512_001_072       JUNCTION     0.01     0.09    16.94     0  01:47        0.09
  z_0512_001_073       JUNCTION     0.00     0.00    16.85     0  00:00        0.00
  z_0512_001_074       JUNCTION     0.01     0.15    17.00     0  01:37        0.14
  z_0512_001_075       JUNCTION     0.01     0.86    17.71     0  01:37        0.46
  z_0512_001_077       JUNCTION     0.00     0.00    16.85     0  00:00        0.00
  z_0512_001_079       JUNCTION     0.01     0.13    16.98     0  01:39        0.13
  z_0512_001_083       JUNCTION     0.36     1.37    18.22     0  01:49        1.37
  z_0512_001_086       JUNCTION     0.36     1.37    18.22     0  01:53        1.37
  z_0512_001_087       JUNCTION     0.10     1.15    18.00     0  01:30        0.85
  z_0512_001_088       JUNCTION     0.22     1.25    18.10     0  01:38        1.25
  z_0512_001_089       JUNCTION     0.00     0.00    16.85     0  00:00        0.00
  z_0512_001_090       JUNCTION     0.00     0.00    16.85     0  00:00        0.00
  z_0512_001_092       JUNCTION     0.22     1.25    18.10     0  01:43        1.25
  z_0512_001_093       JUNCTION     0.00     0.00    16.85     0  00:00        0.00
  z_0512_001_094       JUNCTION     0.00     0.00    16.85     0  00:00        0.00
  z_0512_001_095       JUNCTION     0.00     0.00    16.85     0  00:00        0.00
  z_0512_001_096       JUNCTION     0.00     0.00    16.85     0  00:00        0.00
  z_0512_001_097       JUNCTION     0.28     1.35    18.20     0  01:44        1.35
  z_0512_001_099       JUNCTION     0.00     0.00    16.85     0  00:00        0.00
  z_0512_001_100       JUNCTION     0.00     0.00    16.85     0  00:00        0.00
  z_0512_001_101       JUNCTION     0.00     0.00    16.85     0  00:00        0.00
  z_0512_001_102       JUNCTION     0.00     0.00    16.85     0  00:00        0.00
  z_0512_001_103       JUNCTION     0.00     0.03    16.88     0  01:39        0.03
  z_0512_001_104       JUNCTION     0.05     1.15    18.00     0  01:33        1.15
  z_0512_001_106       JUNCTION     0.27     1.33    18.18     0  01:49        1.33
  z_0512_001_107       JUNCTION     0.13     1.20    18.05     0  01:38        1.20
  z_0512_001_108       JUNCTION     0.13     1.16    18.01     0  01:33        1.16
  z_0512_001_109       JUNCTION     0.13     1.16    18.01     0  01:32        1.16
  z_0512_001_110       JUNCTION     0.18     1.23    18.08     0  01:48        1.23
  z_0512_001_111       JUNCTION     0.01     0.26    17.11     0  01:44        0.26
  z_0512_001_112       JUNCTION     0.20     1.25    18.10     0  01:54        1.25
  z_0512_001_113       JUNCTION     0.05     1.15    18.00     0  01:38        1.15
  z_0512_001_114       JUNCTION     0.09     1.16    18.01     0  01:35        1.16
  z_0512_001_115       JUNCTION     0.01     0.20    17.05     0  01:52        0.20
  z_0512_001_119       JUNCTION     0.16     1.20    18.05     0  01:46        1.20
  z_0512_001_120       JUNCTION     0.13     1.15    18.00     0  01:32        1.15
  z_0512_001_121       JUNCTION     0.18     1.18    18.03     0  01:52        1.18
  z_0512_001_122       JUNCTION     0.05     1.15    18.00     0  01:45        1.14
  z_0512_001_123       JUNCTION     0.07     1.15    18.00     0  01:43        1.15
  z_0512_001_124       JUNCTION     0.10     1.16    18.01     0  01:41        1.15
  z_0512_001_125       JUNCTION     0.11     1.15    18.00     0  01:40        1.15
  347                  OUTFALL      1.06     1.74    11.12     0  01:47        1.74
  
  
  *******************
  Node Inflow Summary
  *******************
  
  -------------------------------------------------------------------------------------------------
                                  Maximum  Maximum                  Lateral       Total        Flow
                                  Lateral    Total  Time of Max      Inflow      Inflow     Balance
                                   Inflow   Inflow   Occurrence      Volume      Volume       Error
  Node                 Type           CMS      CMS  days hr:min    10^6 ltr    10^6 ltr     Percent
  -------------------------------------------------------------------------------------------------
  1                    JUNCTION     0.139    0.139     0  01:30        0.34       0.341       1.157
  2                    JUNCTION     0.133    0.562     0  01:29       0.327        1.38       1.244
  3                    JUNCTION     0.114    0.264     0  01:32        0.28       0.649       0.210
  4                    JUNCTION     0.000    0.374     0  01:30           0       0.957      -0.343
  5                    JUNCTION     0.000    0.373     0  01:30           0        0.99       0.889
  6                    JUNCTION     0.138    0.684     0  01:30       0.338        1.66      -0.486
  7                    JUNCTION     0.090    0.904     0  01:30       0.221        2.17       1.823
  8                    JUNCTION     0.000    0.684     0  01:28           0        2.07       0.107
  9                    JUNCTION     0.296    0.709     0  01:28       0.727        2.04      -0.616
  10                   JUNCTION     0.111    0.183     0  01:30       0.273        0.41       1.914
  11                   JUNCTION     0.139    0.179     0  01:30        0.34       0.518       0.553
  12                   JUNCTION     0.260    0.260     0  01:30       0.639       0.672       0.928
  13                   JUNCTION     0.161    0.259     0  01:26       0.394       0.665      -0.060
  14                   JUNCTION     0.000    0.216     0  01:26           0       0.744       0.810
  15                   JUNCTION     0.151    0.340     0  01:26        0.37        1.09      -0.113
  16                   JUNCTION     0.000    0.313     0  01:27           0        1.03       0.214
  17                   JUNCTION     0.000    0.275     0  01:27           0       0.876       0.134
  18                   JUNCTION     0.140    0.410     0  01:29       0.344        1.22      -0.024
  19                   JUNCTION     0.000    0.330     0  01:26           0        1.18       0.312
  20                   JUNCTION     0.076    0.399     0  01:26       0.187        1.36      -0.317
  21                   JUNCTION     0.132    0.134     0  01:32       0.323       0.361       1.966
  22                   JUNCTION     0.000    0.116     0  01:36           0         0.1       1.088
  23                   JUNCTION     0.000    0.102     0  01:35           0       0.154       3.446
  24                   JUNCTION     0.000    0.120     0  01:32           0      0.0681       7.089
  25                   JUNCTION     0.145    0.171     0  01:26       0.357       0.379       3.037
  26                   JUNCTION     0.189    0.189     0  01:30       0.464       0.468       0.243
  27                   JUNCTION     0.166    0.321     0  01:25       0.407       0.725       1.231
  28                   JUNCTION     0.000    0.109     0  01:17           0       0.349       0.625
  29                   JUNCTION     0.179    0.256     0  01:30       0.439       0.782       0.871
  30                   JUNCTION     0.000    0.601     0  01:27           0        1.38      -0.922
  31                   JUNCTION     0.268    0.400     0  01:30       0.658        1.08       1.028
  32                   JUNCTION     0.000    0.414     0  01:26           0        1.19      -0.538
  33                   JUNCTION     0.143    0.542     0  01:29       0.351        1.61       0.868
  34                   JUNCTION     0.000    0.573     0  01:30           0        1.74      -0.698
  35                   JUNCTION     0.000    0.572     0  01:31           0        1.85       0.137
  36                   JUNCTION     0.000    0.139     0  01:35           0        0.31      -0.337
  37                   JUNCTION     0.076    0.468     0  01:26       0.187        1.62       1.345
  38                   JUNCTION     0.144    1.203     0  01:26       0.353         5.4      -0.426
  39                   JUNCTION     0.257    0.740     0  01:42       0.632        3.46       0.148
  40                   JUNCTION     0.154    0.812     0  01:27       0.378        2.77      -0.450
  41                   JUNCTION     0.000    0.690     0  01:28           0        2.01       0.822
  42                   JUNCTION     0.000    0.153     0  01:39           0       0.241      -0.423
  43                   JUNCTION     0.358    0.358     0  01:30       0.879       0.953       3.256
  44                   JUNCTION     0.000    0.530     0  01:28           0        1.42       1.392
  45                   JUNCTION     0.000    1.429     0  01:30           0        4.42      -1.022
  46                   JUNCTION     0.114    0.748     0  01:26        0.28        2.33       0.840
  47                   JUNCTION     0.000    1.592     0  01:30           0         5.8      -0.123
  48                   JUNCTION     0.000    1.627     0  01:27           0        6.45       0.292
  49                   JUNCTION     0.000    0.182     0  01:35           0        0.17       1.108
  50                   JUNCTION     0.221    0.339     0  01:30       0.542       0.674       2.887
  51                   JUNCTION     0.395    0.453     0  01:30        0.97        1.05      -0.127
  52                   JUNCTION     0.000    0.347     0  01:27           0       0.866       0.808
  53                   JUNCTION     0.355    0.760     0  01:30       0.871        1.81      -0.508
  54                   JUNCTION     0.119    0.278     0  01:24       0.292       0.491       0.843
  55                   JUNCTION     0.000    0.168     0  01:25           0       0.229       0.549
  56                   JUNCTION     0.510    0.510     0  01:30        1.25        1.27       0.412
  57                   JUNCTION     0.000    1.999     0  01:34           0        8.62       0.121
  58                   JUNCTION     0.201    1.784     0  01:33       0.493        7.58      -0.059
  59                   JUNCTION     0.000    1.577     0  01:27           0        6.57      -0.365
  60                   JUNCTION     0.244    1.903     0  01:25       0.598        7.74      -0.139
  61                   JUNCTION     0.114    2.046     0  01:25        0.28        8.36      -0.066
  62                   JUNCTION     0.159    2.185     0  01:25       0.391           9       0.282
  63                   JUNCTION     0.141    2.171     0  01:25       0.346        9.38      -0.298
  64                   JUNCTION     0.279    2.236     0  01:24       0.684        10.1       0.005
  65                   JUNCTION     0.138    2.164     0  01:23       0.338          11       0.045
  66                   JUNCTION     0.139    2.233     0  01:24        0.34        10.7      -0.032
  67                   JUNCTION     0.114    2.290     0  01:23        0.28        11.9      -0.056
  68                   JUNCTION     0.114    2.189     0  01:23        0.28        12.2       0.018
  69                   JUNCTION     0.000    2.156     0  01:44           0        12.6      -0.012
  70                   JUNCTION     0.000    2.179     0  01:41           0          13      -0.019
  71                   JUNCTION     0.114    2.271     0  01:41        0.28        13.5      -0.023
  72                   JUNCTION     0.136    0.729     0  01:25       0.333        3.56      -0.457
  73                   JUNCTION     0.183    0.742     0  01:26        0.45        3.24       0.827
  74                   JUNCTION     0.000    0.695     0  01:36           0        2.79      -0.036
  75                   JUNCTION     0.000    0.747     0  01:36           0        2.79      -0.017
  76                   JUNCTION     0.000    0.925     0  01:35           0         2.8      -0.163
  77                   JUNCTION     0.136    0.877     0  01:29       0.335        2.76      -0.195
  78                   JUNCTION     0.091    0.893     0  01:34       0.224        2.35      -0.430
  79                   JUNCTION     0.000    0.770     0  01:29           0        2.01      -0.258
  80                   JUNCTION     0.000    0.796     0  01:30           0        1.92      -0.205
  81                   JUNCTION     0.000    0.115     0  01:26           0       0.132       2.825
  82                   JUNCTION     0.000    0.126     0  01:26           0       0.174       0.116
  83                   JUNCTION     0.132    0.213     0  01:30       0.325       0.481       0.091
  84                   JUNCTION     0.126    0.229     0  01:30       0.308       0.659      -0.119
  85                   JUNCTION     0.000    0.169     0  01:27           0       0.574      -0.271
  86                   JUNCTION     0.323    0.415     0  01:28       0.793        1.26       0.190
  87                   JUNCTION     0.200    0.571     0  01:29       0.492        1.73       0.568
  88                   JUNCTION     0.000    0.541     0  01:29           0        1.73       0.615
  89                   JUNCTION     0.308    0.308     0  01:30       0.755       0.766       0.366
  90                   JUNCTION     0.119    0.369     0  01:30       0.306        1.04      -0.196
  91                   JUNCTION     0.123    0.490     0  01:30       0.303        1.35       0.709
  92                   JUNCTION     0.239    0.723     0  01:30       0.587         1.9      -0.109
  93                   JUNCTION     0.312    1.389     0  01:25       0.766        6.22      -0.300
  94                   JUNCTION     0.125    2.356     0  01:42       0.307          14       0.038
  95                   JUNCTION     0.457    0.606     0  01:30        1.12        1.56      -0.268
  96                   JUNCTION     0.226    0.822     0  01:30       0.555        2.13       2.453
  97                   JUNCTION     0.000    0.193     0  01:30           0       0.512       0.478
  98                   JUNCTION     0.065    0.747     0  01:30       0.159        2.08      -0.368
  99                   JUNCTION     0.138    0.317     0  01:34       0.338       0.919       0.207
  100                  JUNCTION     0.133    0.218     0  01:29       0.327       0.584       0.092
  101                  JUNCTION     0.000    0.158     0  01:32           0       0.255      -0.728
  102                  JUNCTION     0.088    0.395     0  01:27       0.215        1.61      -0.440
  103                  JUNCTION     0.140    0.311     0  01:22       0.344       0.905       0.207
  104                  JUNCTION     0.000    0.269     0  01:23           0       0.702      -0.946
  105                  JUNCTION     0.000    0.215     0  01:25           0       0.369      -0.020
  106                  JUNCTION     0.116    0.227     0  01:26       0.284       0.591      -0.626
  107                  JUNCTION     0.000    0.180     0  01:26           0       0.151       1.925
  108                  JUNCTION     0.000    0.087     0  01:26           0       0.102       0.218
  109                  JUNCTION     0.270    0.406     0  01:28       0.664       0.946      -0.122
  110                  JUNCTION     0.000    0.246     0  01:29           0       0.306      -1.540
  111                  JUNCTION     0.147    0.255     0  01:32       0.361       0.934       0.807
  112                  JUNCTION     0.442    0.495     0  01:29        1.08        1.81       0.144
  113                  JUNCTION     0.076    0.308     0  01:28       0.187       0.888      -0.432
  114                  JUNCTION     0.000    0.209     0  01:28           0       0.707      -0.183
  115                  JUNCTION     0.114    0.409     0  01:23        0.28        1.67       0.052
  116                  JUNCTION     0.000    0.143     0  01:32           0       0.243      -0.578
  117                  JUNCTION     0.000    0.313     0  01:31           0       0.719      -0.807
  118                  JUNCTION     0.000    0.137     0  01:28           0       0.268       0.082
  119                  JUNCTION     0.000    0.735     0  01:31           0        2.09       2.374
  120                  JUNCTION     0.000    3.291     0  01:35           0        22.6       0.035
  121                  JUNCTION     0.000    3.435     0  01:34           0        22.6      -0.145
  122                  JUNCTION     0.000    3.304     0  01:39           0        20.6      -0.033
  123                  JUNCTION     0.159    1.419     0  01:26       0.408        6.65       0.319
  124                  JUNCTION     0.389    1.922     0  01:37       0.955        9.72       0.029
  125                  JUNCTION     0.000    0.301     0  01:23           0       0.513       1.179
[...]
  77                          2.11      2.11      2.12      0.29         0.30
  197                         2.04      2.04      2.09      0.08         0.09
  465                         0.01      0.01      4.57      0.01         0.01
  468                         0.57      0.57      0.66      0.01         0.01
  466                         0.56      0.56      4.53      0.01         0.01
  219                         1.16      1.16      1.21      0.01         0.01
  218                         0.55      0.55      0.70      0.05         0.01
  274                         0.50      0.50      0.61      0.01         0.01
  230                         0.99      0.99      1.44      0.07         0.07
  430                         0.95      0.95      4.49      0.01         0.01
  104                         1.32      1.32      1.59      0.01         0.01
  429                         0.88      0.88      4.62      0.01         0.01
  352                         0.72      0.72      4.60      0.01         0.01
  241                         0.95      0.95      1.16      0.01         0.01
  8                           1.13      1.13      1.26      0.04         0.05
  357                         0.53      0.53      0.95      0.01         0.01
  9                           1.21      1.21      1.24      0.17         0.19
  14                          0.98      0.98      1.20      0.01         0.01
  382                         0.81      0.81      0.98      0.01         0.01
  381                         0.24      0.24      4.53      0.01         0.01
  12                          1.33      1.33      1.49      0.06         0.03
  433                         0.94      0.96      4.58      0.05         0.02
  102                         1.83      2.12      1.83      1.54         1.19
  60                          1.57      1.57      1.66      0.04         0.04
  525                         0.01      0.01      4.37      0.01         0.01
  504                         0.01      0.01      4.37      0.01         0.01
  322                         1.49      1.49      1.56      0.01         0.01
  340                         1.01      1.01      1.05      0.24         0.24
  315                         1.67      1.67      1.69      0.01         0.01
  255                         0.54      0.54      0.73      0.01         0.01
  403                         0.01      0.01      4.32      0.01         0.01
  337                         1.46      1.46      1.61      0.01         0.01
  38                          1.78      1.89      1.78      1.03         0.77
  76                          2.09      2.09      2.11      0.13         0.15
  400                         0.01      0.01      4.20      0.01         0.01
  198                         1.99      1.99      2.04      0.01         0.01
  476                         0.55      0.55      0.79      0.02         0.01
  220                         1.11      1.11      1.16      0.01         0.01
  481                         0.43      0.43      4.47      0.01         0.01
  385                         1.10      1.10      4.50      0.02         0.01
  279                         1.14      1.14      1.19      0.03         0.02
  240                         0.95      0.95      1.13      0.01         0.01
  353                         0.80      0.80      4.61      0.01         0.01
  239                         0.96      0.96      1.10      0.01         0.01
  10                          1.10      1.10      1.21      0.04         0.01
  355                         0.78      0.79      4.51      0.02         0.01
  11                          1.10      1.10      1.32      0.01         0.01
  69                          1.40      1.40      1.57      0.01         0.01
  61                          1.43      1.43      1.57      0.03         0.02
  103                         2.07      2.07      2.12      0.97         0.92
  522                         0.01      0.01      4.34      0.01         0.01
  323                         1.45      1.45      1.49      0.01         0.01
  338                         0.97      1.00      1.01      0.40         0.32
  314                         1.65      1.65      1.67      0.01         0.01
  256                         0.55      0.55      0.76      0.01         0.01
  520                         0.11      0.11      4.50      0.01         0.01
  401                         0.01      0.01      4.50      0.01         0.01
  37                          1.89      1.93      1.89      0.86         0.74
  336                         1.43      1.48      1.46      0.32         0.19
  75                          2.08      2.08      2.09      0.06         0.07
  398                         0.01      0.01      4.21      0.01         0.01
  199                         1.93      1.93      1.99      0.01         0.01
  229                         0.97      0.97      1.11      0.01         0.01
  221                         0.64      0.64      0.81      0.01         0.01
  238                         0.93      0.93      1.10      0.01         0.01
  354                         0.80      0.80      4.56      0.01         0.01
  388                         0.89      0.89      4.58      0.01         0.01
  384                         0.94      0.94      1.17      0.01         0.01
  356                         0.79      0.79      4.61      0.01         0.01
  237                         1.17      1.17      1.32      0.01         0.01
  67                          1.30      1.30      1.40      0.01         0.01
  431                         1.19      1.19      1.64      0.01         0.01
  63                          1.93      1.93      2.07      0.03         0.05
  62                          1.89      1.89      2.01      0.01         0.01
  521                         0.11      0.11      4.37      0.01         0.01
  503                         0.17      0.17      4.32      0.01         0.01
  324                         1.38      1.38      1.45      0.01         0.02
  523                         0.01      0.01      4.56      0.01         0.01
  506                         0.09      0.09      4.31      0.01         0.01
  312                         1.63      1.63      1.65      0.01         0.01
  258                         0.58      0.58      0.75      0.01         0.01
  518                         0.20      0.20      4.55      0.01         0.01
  399                         0.01      0.01      4.55      0.01         0.01
  36                          1.93      1.95      1.93      0.72         0.64
  335                         1.46      1.63      1.48      0.95         0.69
  74                          2.07      2.07      2.08      0.09         0.09
  396                         0.01      0.01      4.22      0.01         0.01
  222                         1.87      1.87      1.93      0.01         0.01
  228                         0.75      0.75      0.96      0.02         0.01
  236                         1.16      1.16      1.30      0.01         0.01
  66                          1.48      1.48      1.82      0.01         0.01
  65                          1.43      1.43      1.85      0.01         0.01
  64                          1.81      1.83      1.93      0.18         0.12
  517                         0.23      0.23      4.42      0.01         0.01
  325                         1.35      1.35      1.38      0.06         0.03
  313                         1.61      1.61      1.63      0.01         0.01
  259                         0.58      0.58      0.79      0.01         0.01
  516                         0.23      0.23      4.59      0.01         0.01
  397                         0.01      0.01      4.59      0.01         0.01
  34                          1.94      1.94      1.95      0.46         0.45
  334                         1.48      1.48      1.63      0.01         0.01
  73                          2.05      2.05      2.07      0.03         0.04
  394                         0.01      0.01      4.23      0.01         0.01
  225                         1.81      1.81      1.87      0.01         0.01
  480                         0.01      0.01      4.47      0.01         0.01
  389                         0.89      0.89      4.53      0.01         0.01
  234                         1.25      1.25      1.48      0.01         0.01
  386                         1.04      1.04      4.61      0.01         0.01
  1                           1.45      1.45      1.67      0.17         0.18
  387                         0.98      0.98      4.51      0.01         0.01
  515                         0.29      0.29      4.43      0.01         0.01
  502                         0.22      0.22      4.39      0.01         0.01
  326                         1.32      1.32      1.35      0.01         0.02
  311                         1.60      1.60      1.61      0.01         0.01
  260                         0.60      0.60      0.80      0.01         0.01
  514                         0.29      0.29      4.61      0.01         0.01
  395                         0.01      0.01      4.61      0.01         0.01
  33                          1.88      1.88      1.94      0.05         0.04
  333                         1.41      1.41      1.48      0.05         0.05
  72                          2.03      2.03      2.05      0.01         0.03
  478                         0.40      0.64      0.72      0.36         0.11
  392                         0.01      0.01      4.23      0.01         0.01
  226                         1.75      1.75      1.81      0.01         0.01
  513                         0.33      0.33      4.44      0.01         0.01
  327                         1.29      1.29      1.32      0.01         0.01
  507                         0.23      0.23      4.37      0.01         0.01
  310                         1.58      1.58      1.60      0.01         0.01
  261                         0.60      0.60      0.81      0.01         0.01
  512                         0.33      0.33      4.63      0.01         0.01
  393                         0.01      0.01      4.63      0.01         0.01
  32                          1.75      1.75      1.88      0.01         0.01
  332                         1.32      1.32      1.41      0.01         0.01
  71                          2.01      2.01      2.03      0.01         0.04
  227                         1.57      1.57      1.75      0.01         0.01
  511                         0.33      0.33      4.44      0.01         0.01
  501                         0.32      0.32      4.44      0.01         0.01
  329                         1.26      1.26      1.29      0.01         0.01
  309                         1.56      1.56      1.58      0.09         0.08
  262                         0.61      0.61      0.81      0.01         0.01
  510                         0.33      0.33      4.62      0.01         0.01
  31                          1.70      1.70      1.75      0.01         0.01
  331                         1.16      1.16      1.32      0.01         0.01
  479                         0.01      0.01      4.30      0.01         0.01
  70                          1.98      1.98      2.01      0.03         0.04
  390                         0.01      0.01      4.27      0.01         0.01
  273                         0.03      0.03      1.31      0.01         0.01
  509                         0.33      0.33      4.45      0.01         0.01
  500                         0.32      0.32      4.43      0.01         0.01
  299                         1.23      1.23      1.26      0.02         0.01
  508                         0.29      0.29      4.40      0.01         0.01
  308                         1.54      1.54      1.56      0.07         0.04
  263                         0.65      0.65      0.83      0.01         0.01
  391                         0.01      0.01      4.61      0.01         0.01
  30                          1.65      1.65      1.70      0.01         0.01
  330                         1.03      1.03      1.16      0.01         0.01
  29                          1.92      1.92      1.98      0.05         0.03
  495                         0.37      0.37      4.46      0.01         0.01
  486                         0.35      0.35      4.43      0.01         0.01
  298                         1.22      1.39      1.23      0.30         0.07
  307                         1.52      1.52      1.54      0.06         0.02
  264                         0.69      0.79      0.85      0.19         0.01
  300                         1.21      1.21      1.65      0.01         0.01
  496                         0.37      0.37      4.56      0.01         0.01
  372                         0.37      0.37      4.37      0.01         0.01
  303                         1.86      1.86      1.92      0.01         0.01
  497                         0.43      0.43      4.56      0.01         0.01
  487                         0.38      0.38      4.53      0.01         0.01
  297                         1.33      1.37      1.39      0.31         0.23
  282                         1.50      1.50      1.52      0.01         0.01
  265                         0.74      1.04      0.84      0.59         0.26
  301                         1.10      1.10      1.21      0.01         0.01
  302                         0.78      1.20      0.82      0.79         0.29
  304                         1.81      1.81      1.86      0.02         0.02
  272                         0.63      0.63      1.32      0.01         0.01
  498                         0.62      0.62      4.70      0.01         0.01
  488                         0.39      0.39      4.59      0.01         0.01
  283                         1.47      1.47      1.50      0.01         0.02
  281                         1.47      1.49      1.49      0.17         0.06
  499                         0.62      0.62      4.58      0.01         0.01
  296                         1.03      1.17      1.14      0.23         0.04
  305                         1.76      1.76      1.81      0.01         0.01
  113                         1.46      1.47      1.49      0.17         0.11
  285                         1.43      1.43      1.47      0.01         0.01
  293                         1.74      1.74      1.76      0.32         0.16
  294                         1.07      1.07      1.15      0.01         0.01
  494                         0.62      0.62      4.58      0.01         0.01
  489                         0.45      0.45      4.47      0.01         0.01
  101                         1.45      1.47      1.47      0.22         0.13
  286                         1.35      1.35      1.43      0.01         0.01
  280                         0.98      0.98      1.10      0.01         0.01
  493                         0.50      0.50      4.41      0.01         0.01
  287                         0.89      0.89      1.07      0.01         0.01
  288                         1.05      1.29      1.21      0.29         0.03
  292                         1.70      1.72      1.74      0.20         0.11
  90                          1.43      1.48      1.47      0.24         0.15
  485                         0.43      0.43      4.41      0.01         0.01
  484                         0.49      0.49      4.41      0.01         0.01
  124                         0.81      0.85      0.88      0.06         0.01
  490                         0.57      0.57      4.38      0.01         0.01
  278                         1.27      1.27      1.35      0.01         0.01
  491                         0.65      0.65      4.39      0.01         0.01
  290                         1.67      1.67      1.72      0.06         0.06
  271                         0.84      0.84      1.14      0.01         0.01
  289                         1.46      1.57      1.50      0.25         0.08
  492                         0.72      0.72      4.57      0.01         0.01
  440                         0.85      0.85      1.02      0.01         0.01
  79                          1.40      1.40      1.48      0.01         0.01
  268                         1.23      1.23      1.27      0.01         0.01
  135                         0.86      0.86      1.04      0.01         0.01
  224                         1.51      1.56      1.57      0.33         0.23
  317                         1.23      1.23      1.33      0.03         0.01
  291                         1.61      1.61      1.67      0.01         0.01
  68                          1.36      1.36      1.40      0.04         0.03
  410                         0.56      0.56      4.39      0.01         0.01
  257                         1.20      1.34      1.23      0.36         0.16
  146                         0.83      0.83      0.93      0.01         0.01
  482                         0.86      0.86      4.54      0.01         0.01
  212                         1.54      1.66      1.56      0.35         0.17
  190                         1.14      1.14      1.34      0.03         0.03
  328                         1.57      1.57      1.61      0.01         0.01
  519                         0.80      0.80      4.43      0.01         0.01
  477                         0.83      0.83      4.43      0.01         0.01
  306                         1.14      1.14      1.23      0.01         0.01
  447                         0.83      0.83      1.08      0.01         0.01
  57                          1.33      1.33      1.36      0.19         0.13
  246                         1.31      1.31      1.34      0.19         0.18
  157                         0.94      0.94      1.12      0.01         0.01
  24                          1.04      1.09      1.14      0.17         0.10
  201                         1.45      1.45      1.66      0.01         0.01
  339                         1.54      1.54      1.57      0.01         0.01
  295                         1.10      1.10      1.14      0.05         0.01
  2                           0.90      1.06      1.02      0.22         0.05
  46                          1.27      1.31      1.33      0.49         0.41
  383                         0.65      0.65      4.46      0.01         0.01
  235                         1.28      1.38      1.31      0.62         0.45
  168                         1.00      1.01      1.09      0.12         0.09
  13                          1.26      1.27      1.45      0.03         0.01
  112                         1.48      1.59      1.54      0.28         0.15
  266                         0.90      0.90      1.03      0.01         0.01
  284                         1.07      1.07      1.10      0.06         0.01
  454                         1.02      1.02      1.19      0.01         0.01
  35                          1.21      1.21      1.31      0.40         0.37
  179                         1.16      1.16      1.38      0.05         0.06
  367                         1.09      1.09      1.27      0.03         0.01
  350                         1.06      1.06      1.27      0.01         0.01
  483                         0.85      0.85      4.47      0.01         0.01
  233                         1.25      1.25      1.59      0.02         0.03
  232                         0.95      0.95      1.09      0.06         0.02
  267                         0.91      1.00      1.03      0.16         0.03
  223                         1.03      1.25      1.07      0.48         0.19
  369                         1.10      1.10      1.21      0.02         0.03
  373                         0.94      0.94      4.66      0.01         0.01
  270                         0.98      0.98      1.25      0.01         0.01
  269                         1.09      1.09      1.25      0.22         0.23
  

  Analysis begun on:  Wed Dec 22 20:05:18 2021
  Analysis ended on:  Wed Dec 22 20:05:19 2021
  Total elapsed time: 00:00:01