
  EPA STORM WATER MANAGEMENT MODEL - VERSION 5.1 (Build 5.3.0.dev0)
  --------------------------------------------------------------

  
  *********************************************************
  NOTE: The summary statistics displayed in this report are
  based on results found at every computational time step,  
  not just on results from each reporting time step.
  *********************************************************
  
  ****************
  Analysis Options
  ****************
  Flow Units ............... CMS
  Process Models:
    Rainfall/Runoff ........ YES
    RDII ................... NO
    Snowmelt ............... NO
    Groundwater ............ NO
    Flow Routing ........... YES
    Ponding Allowed ........ YES
    Water Quality .......... NO
  Infiltration Method ...... HORTON
  Flow Routing Method ...... DYNWAVE
  Surcharge Method ......... EXTRAN
  Starting Date ............ 12/15/2017 00:00:00
  Ending Date .............. 12/15/2017 06:00:00
  Antecedent Dry Days ...... 0.0
  Report Time Step ......... 00:01:00
  Wet Time Step ............ 00:01:00
  Dry Time Step ............ 06:00:00
  Routing Time Step ........ 30.00 sec
  Variable Time Step ....... YES
  Maximum Trials ........... 8
  Number of Threads ........ 1
  Head Tolerance ........... 0.001500 m
  
  
  **************************        Volume         Depth
  Runoff Quantity Continuity     hectare-m            mm
  **************************     ---------       -------
  Total Precipitation ......        11.436        23.286
  Evaporation Loss .........         0.000         0.000
  Infiltration Loss ........         1.331         2.710
  Surface Runoff ...........         8.976        18.277
  Final Storage ............         1.130         2.300
  Continuity Error (%) .....        -0.011
  
  
  **************************        Volume        Volume
  Flow Routing Continuity        hectare-m      10^6 ltr
  **************************     ---------     ---------
  Dry Weather Inflow .......         0.000         0.000
  Wet Weather Inflow .......         8.977        89.771
  Groundwater Inflow .......         0.000         0.000
  RDII Inflow ..............         0.000         0.000
  External Inflow ..........         0.000         0.000
  External Outflow .........         8.923        89.231
  Flooding Loss ............         0.000         0.000
  Evaporation Loss .........         0.000         0.000
  Exfiltration Loss ........         0.000         0.000
  Initial Stored Volume ....         0.000         0.000
  Final Stored Volume ......         0.047         0.473
  Continuity Error (%) .....         0.074
  
  
  *************************
  Highest Continuity Errors
  *************************
  Node 247 (-22.19%)
  Node 302 (7.13%)
  Node 24 (6.55%)
  Node 272 (-5.00%)
  Node 227 (4.51%)
  
  
  ***************************
  Time-Step Critical Elements
  ***************************
  Link 26 (40.85%)
  Link 223 (9.57%)
  Link 163 (9.24%)
  Link 365 (2.61%)
  Link 123 (2.10%)
  
  
  ********************************
  Highest Flow Instability Indexes
  ********************************
  Link 86 (21)
  Link 244 (18)
  Link 343 (17)
  Link 31 (16)
  Link 316 (14)
  
  
  *************************
  Routing Time Step Summary
  *************************
  Minimum Time Step           :     0.50 sec
  Average Time Step           :    10.08 sec
  Maximum Time Step           :    30.00 sec
  Percent in Steady State     :     0.59
  Average Iterations per Step :     4.72
  Percent Not Converging      :    35.01
  
  
  ***************************
  Subcatchment Runoff Summary
  ***************************
  
  ------------------------------------------------------------------------------------------------------------------------------
                            Total      Total      Total      Total     Imperv       Perv      Total       Total     Peak  Runoff
                           Precip      Runon       Evap      Infil     Runoff     Runoff     Runoff      Runoff   Runoff   Coeff
  Subcatchment                 mm         mm         mm         mm         mm         mm         mm    10^6 ltr      CMS
  ------------------------------------------------------------------------------------------------------------------------------
  532                       23.29       0.00       0.00       2.46      17.57       1.12      18.69        0.39     0.16   0.803
  533                       23.29       0.00       0.00       2.46      17.57       1.12      18.69        0.27     0.11   0.803
  534                       23.29       0.00       0.00       2.46      17.57       1.12      18.69        0.31     0.12   0.803
  535                       23.29       0.00       0.00       2.46      17.57       1.12      18.69        0.37     0.15   0.803
  536                       23.29       0.00       0.00       2.46      17.57       1.12      18.69        0.35     0.14   0.803
  537                       23.29       0.00       0.00       2.46      17.57       1.12      18.69        0.34     0.14   0.803
  538                       23.29       0.00       0.00       2.46      17.57       1.12      18.69        0.33     0.14   0.803
  539                       23.29       0.00       0.00       2.46      17.57       1.12      18.69        0.32     0.13   0.803
  540                       23.29       0.00       0.00       2.46      17.57       1.12      18.69        0.60     0.24   0.803
  541                       23.29       0.00       0.00       2.46      17.57       1.12      18.69        0.58     0.24   0.803
  542                       23.29       0.00       0.00       2.46      17.57       1.12      18.69        0.28     0.12   0.803
  543                       23.29       0.00       0.00       2.46      17.57       1.12      18.69        0.47     0.19   0.803
  544                       23.29       0.00       0.00       2.46      17.57       1.12      18.69        1.08     0.44   0.803
  545                       23.29       0.00       0.00       2.46      17.57       1.12      18.69        0.44     0.18   0.803
  546                       23.29       0.00       0.00       2.46      17.57       1.12      18.69        0.43     0.18   0.803
  547                       23.29       0.00       0.00       2.46      17.57       1.12      18.69        0.38     0.15   0.803
  548                       23.29       0.00       0.00       2.46      17.57       1.12      18.69        0.31     0.12   0.803
  549                       23.29       0.00       0.00       2.46      17.57       1.12      18.69        0.43     0.18   0.803
  550                       23.29       0.00       0.00       2.46      17.57       1.12      18.69        0.44     0.18   0.803
  551                       23.29       0.00       0.00       2.46      17.57       1.12      18.69        0.21     0.09   0.803
  552                       23.29       0.00       0.00       2.46      17.57       1.12      18.69        0.22     0.09   0.803
  553                       23.29       0.00       0.00       2.46      17.57       1.12      18.69        0.21     0.09   0.803
  554                       23.29       0.00       0.00       2.46      17.57       1.12      18.69        0.21     0.09   0.803
  555                       23.29       0.00       0.00       2.46      17.57       1.12      18.69        0.21     0.09   0.803
  556                       23.29       0.00       0.00       2.46      17.57       1.12      18.69        0.21     0.09   0.803
  557                       23.29       0.00       0.00       2.46      17.57       1.12      18.69        0.21     0.09   0.803
  558                       23.29       0.00       0.00       2.46      17.57       1.12      18.69        0.43     0.17   0.803
  559                       23.29       0.00       0.00       2.46      17.57       1.12      18.69        0.22     0.09   0.803
  560                       23.29       0.00       0.00       2.46      17.57       1.12      18.69        0.41     0.17   0.803
  561                       23.29       0.00       0.00       2.46      17.57       1.12      18.69        0.43     0.18   0.803
  562                       23.29       0.00       0.00       2.46      17.57       1.12      18.69        0.37     0.15   0.803
  563                       23.29       0.00       0.00       2.46      17.57       1.12      18.69        0.67     0.27   0.803
  564                       23.29       0.00       0.00       2.46      17.57       1.12      18.69        0.63     0.26   0.803
  565                       23.29       0.00       0.00       2.46      17.57       1.12      18.69        0.60     0.25   0.803
  566                       23.29       0.00       0.00       2.46      17.57       1.12      18.69        0.53     0.22   0.803
  567                       23.29       0.00       0.00       2.46      17.57       1.12      18.69        0.48     0.19   0.803
  568                       23.29       0.00       0.00       2.46      17.57       1.12      18.69        0.43     0.18   0.803
  569                       23.29       0.00       0.00       2.46      17.57       1.12      18.69        0.44     0.18   0.803
  570                       23.29       0.00       0.00       2.46      17.57       1.12      18.69        0.38     0.15   0.803
  571                       23.29       0.00       0.00       2.46      17.57       1.12      18.69        0.66     0.27   0.803
  572                       23.29       0.00       0.00       2.46      17.57       1.12      18.69        0.31     0.12   0.803
  573                       23.29       0.00       0.00       2.46      17.57       1.12      18.69        0.30     0.12   0.803
  574                       23.29       0.00       0.00       2.46      17.57       1.12      18.69        0.29     0.12   0.803
  575                       23.29       0.00       0.00       2.46      17.57       1.12      18.69        0.27     0.11   0.803
  576                       23.29       0.00       0.00       2.46      17.57       1.12      18.69        0.26     0.11   0.803
  577                       23.29       0.00       0.00       2.46      17.57       1.12      18.69        0.24     0.10   0.803
  578                       23.29       0.00       0.00       2.46      17.57       1.12      18.69        0.24     0.10   0.803
  579                       23.29       0.00       0.00       2.46      17.57       1.12      18.69        0.45     0.18   0.803
  580                       23.29       0.00       0.00       2.46      17.57       1.12      18.69        0.21     0.08   0.803
  581                       23.29       0.00       0.00       2.46      17.57       1.12      18.69        0.37     0.15   0.803
  582                       23.29       0.00       0.00       2.46      17.57       1.12      18.69        0.33     0.14   0.803
  583                       23.29       0.00       0.00       2.46      17.57       1.12      18.69        0.57     0.23   0.803
  584                       23.29       0.00       0.00       2.46      17.57       1.12      18.69        0.56     0.23   0.803
  585                       23.29       0.00       0.00       2.46      17.57       1.12      18.69        0.49     0.20   0.803
  586                       23.29       0.00       0.00       2.46      17.57       1.12      18.69        0.36     0.15   0.803
  587                       23.29       0.00       0.00       2.46      17.57       1.12      18.69        0.35     0.14   0.803
  588                       23.29       0.00       0.00       2.46      17.57       1.12      18.69        0.36     0.14   0.803
  589                       23.29       0.00       0.00       2.46      17.57       1.12      18.69        0.35     0.14   0.803
  590                       23.29       0.00       0.00       2.46      17.57       1.12      18.69        0.35     0.14   0.803
  591                       23.29       0.00       0.00       2.46      17.57       1.12      18.69        0.36     0.15   0.803
  592                       23.29       0.00       0.00       2.46      17.57       1.12      18.69        0.36     0.15   0.803
  593                       23.29       0.00       0.00       2.46      17.57       1.12      18.69        0.37     0.15   0.803
  594                       23.29       0.00       0.00       2.46      17.57       1.12      18.69        0.36     0.15   0.803
  595                       23.29       0.00       0.00       2.46      17.57       1.12      18.69        0.37     0.15   0.803
  596                       23.29       0.00       0.00       2.46      17.57       1.12      18.69        0.37     0.15   0.803
  597                       23.29       0.00       0.00       2.46      17.57       1.12      18.69        0.37     0.15   0.803
  598                       23.29       0.00       0.00       2.46      17.57       1.12      18.69        0.38     0.16   0.803
  599                       23.29       0.00       0.00       2.46      17.57       1.12      18.69        0.39     0.16   0.803
  600                       23.29       0.00       0.00       2.46      17.57       1.12      18.69        0.38     0.16   0.803
  601                       23.29       0.00       0.00       2.46      17.57       1.12      18.69        0.40     0.16   0.803
  602                       23.29       0.00       0.00       2.46      17.57       1.12      18.69        0.39     0.16   0.803
  603                       23.29       0.00       0.00       2.46      17.57       1.12      18.69        0.40     0.16   0.803
  604                       23.29       0.00       0.00       2.46      17.57       1.12      18.69        0.41     0.17   0.803
  605                       23.29       0.00       0.00       2.46      17.57       1.12      18.69        0.38     0.15   0.803
  606                       23.29       0.00       0.00       2.46      17.57       1.12      18.69        0.39     0.16   0.803
  607                       23.29       0.00       0.00       2.46      17.57       1.12      18.69        0.40     0.16   0.803
  608                       23.29       0.00       0.00       2.46      17.57       1.12      18.69        0.51     0.21   0.803
  609                       23.29       0.00       0.00       2.46      17.57       1.12      18.69        0.52     0.21   0.803
  610                       23.29       0.00       0.00       2.46      17.57       1.12      18.69        0.40     0.16   0.803
  611                       23.29       0.00       0.00       2.46      17.57       1.12      18.69        0.40     0.16   0.803
  612                       23.29       0.00       0.00       2.46      17.57       1.12      18.69        0.43     0.18   0.803
  613                       23.29       0.00       0.00       2.46      17.57       1.12      18.69        0.34     0.14   0.803
  614                       23.29       0.00       0.00       2.46      17.57       1.12      18.69        0.54     0.22   0.803
  615                       23.29       0.00       0.00       2.46      17.57       1.12      18.69        0.67     0.27   0.803
  616                       23.29       0.00       0.00       2.46      17.57       1.12      18.69        0.34     0.14   0.803
  617                       23.29       0.00       0.00       2.46      17.57       1.12      18.69        0.33     0.14   0.803
  618                       23.29       0.00       0.00       2.46      17.57       1.12      18.69        0.34     0.14   0.803
  619                       23.29       0.00       0.00       2.46      17.57       1.12      18.69        0.34     0.14   0.803
  620                       23.29       0.00       0.00       2.46      17.57       1.12      18.69        0.33     0.14   0.803
  621                       23.29       0.00       0.00       2.46      17.57       1.12      18.69        0.34     0.14   0.803
  622                       23.29       0.00       0.00       2.46      17.57       1.12      18.69        0.33     0.14   0.803
  623                       23.29       0.00       0.00       2.46      17.57       1.12      18.69        0.34     0.14   0.803
  624                       23.29       0.00       0.00       2.46      17.57       1.12      18.69        0.34     0.14   0.803
  625                       23.29       0.00       0.00       2.46      17.57       1.12      18.69        0.34     0.14   0.803
  626                       23.29       0.00       0.00       2.46      17.57       1.12      18.69        0.34     0.14   0.803
  627                       23.29       0.00       0.00       2.46      17.57       1.12      18.69        0.34     0.14   0.803
  628                       23.29       0.00       0.00       2.46      17.57       1.12      18.69        0.34     0.14   0.803
  629                       23.29       0.00       0.00       2.46      17.57       1.12      18.69        0.35     0.14   0.803
  630                       23.29       0.00       0.00       2.46      17.57       1.12      18.69        0.33     0.13   0.803
  631                       23.29       0.00       0.00       2.46      17.57       1.12      18.69        0.34     0.14   0.803
  632                       23.29       0.00       0.00       2.46      17.57       1.12      18.69        0.34     0.14   0.803
  633                       23.29       0.00       0.00       2.46      17.57       1.12      18.69        0.36     0.15   0.803
  634                       23.29       0.00       0.00       2.46      17.57       1.12      18.69        0.33     0.14   0.803
  635                       23.29       0.00       0.00       2.46      17.57       1.12      18.69        0.33     0.14   0.803
  636                       23.29       0.00       0.00       2.46      17.57       1.12      18.69        0.32     0.13   0.803
  637                       23.29       0.00       0.00       2.46      17.57       1.12      18.69        0.36     0.15   0.803
  638                       23.29       0.00       0.00       2.46      17.57       1.12      18.69        0.54     0.22   0.803
  639                       23.29       0.00       0.00       2.46      17.57       1.12      18.69        0.42     0.17   0.803
  640                       23.29       0.00       0.00       2.46      17.57       1.12      18.69        0.34     0.14   0.803
  641                       23.29       0.00       0.00       2.46      17.57       1.12      18.69        0.59     0.24   0.803
  642                       23.29       0.00       0.00       2.46      17.57       1.12      18.69        0.33     0.13   0.803
  643                       23.29       0.00       0.00       2.46      17.57       1.12      18.69        0.33     0.14   0.803
  644                       23.29       0.00       0.00       2.46      17.57       1.12      18.69        0.33     0.14   0.803
  645                       23.29       0.00       0.00       2.46      17.57       1.12      18.69        0.33     0.13   0.803
  646                       23.29       0.00       0.00       2.46      17.57       1.12      18.69        0.33     0.13   0.803
  647                       23.29       0.00       0.00       2.46      17.57       1.12      18.69        0.33     0.13   0.803
  648                       23.29       0.00       0.00       2.46      17.57       1.12      18.69        0.33     0.13   0.803
  649                       23.29       0.00       0.00       2.46      17.57       1.12      18.69        0.33     0.13   0.803
  650                       23.29       0.00       0.00       2.46      17.57       1.12      18.69        0.32     0.13   0.803
  651                       23.29       0.00       0.00       2.46      17.57       1.12      18.69        0.33     0.13   0.803
  652                       23.29       0.00       0.00       2.46      17.57       1.12      18.69        0.33     0.13   0.803
  653                       23.29       0.00       0.00       2.46      17.57       1.12      18.69        0.33     0.13   0.803
  654                       23.29       0.00       0.00       2.46      17.57       1.12      18.69        0.33     0.13   0.803
  655                       23.29       0.00       0.00       2.46      17.57       1.12      18.69        0.33     0.13   0.803
  656                       23.29       0.00       0.00       2.46      17.57       1.12      18.69        0.33     0.13   0.803
  657                       23.29       0.00       0.00       2.46      17.57       1.12      18.69        0.33     0.13   0.803
  658                       23.29       0.00       0.00       2.46      17.57       1.12      18.69        0.33     0.13   0.803
  659                       23.29       0.00       0.00       2.46      17.57       1.12      18.69        0.33     0.13   0.803
  660                       23.29       0.00       0.00       2.46      17.57       1.12      18.69        0.33     0.13   0.803
  661                       23.29       0.00       0.00       2.46      17.57       1.12      18.69        0.33     0.14   0.803
  662                       23.29       0.00       0.00       2.46      17.57       1.12      18.69        0.50     0.20   0.803
  663                       23.29       0.00       0.00       2.46      17.57       1.12      18.69        0.33     0.14   0.803
  664                       23.29       0.00       0.00       2.46      17.57       1.12      18.69        1.57     0.64   0.803
  665                       23.29       0.00       0.00       2.46      17.57       1.12      18.69        1.42     0.58   0.803
  666                       23.29       0.00       0.00       2.46      17.57       1.12      18.69        1.12     0.46   0.803
  667                       23.29       0.00       0.00       2.46      17.57       1.12      18.69        0.60     0.24   0.803
  668                       23.29       0.00       0.00       2.46      17.57       1.12      18.69        0.49     0.20   0.803
  669                       23.29       0.00       0.00       2.46      17.57       1.12      18.69        0.50     0.20   0.803
  670                       23.29       0.00       0.00       2.46      17.57       1.12      18.69        0.49     0.20   0.803
  671                       23.29       0.00       0.00       2.46      17.57       1.12      18.69        0.49     0.20   0.803
  672                       23.29       0.00       0.00       2.46      17.57       1.12      18.69        0.75     0.30   0.803
  673                       23.29       0.00       0.00       2.46      17.57       1.12      18.69        0.64     0.26   0.803
  674                       23.29       0.00       0.00       2.46      17.57       1.12      18.69        0.93     0.38   0.803
  675                       23.29       0.00       0.00       2.46      17.57       1.12      18.69        0.88     0.36   0.803
  676                       23.29       0.00       0.00       2.46      17.57       1.12      18.69        0.85     0.35   0.803
  677                       23.29       0.00       0.00       2.46      17.57       1.12      18.69        0.75     0.30   0.803
  678                       23.29       0.00       0.00       2.46      17.57       1.12      18.69        0.77     0.31   0.803
  679                       23.29       0.00       0.00       2.46      17.57       1.12      18.69        0.66     0.27   0.803
  680                       23.29       0.00       0.00       2.46      17.57       1.12      18.69        0.28     0.11   0.803
  681                       23.29       0.00       0.00       2.46      17.57       1.12      18.69        0.50     0.21   0.803
  682                       23.29       0.00       0.00       2.46      17.57       1.12      18.69        0.41     0.17   0.803
  683                       23.29       0.00       0.00       2.46      17.57       1.12      18.69        0.41     0.17   0.803
  684                       23.29       0.00       0.00       2.46      17.57       1.12      18.69        0.66     0.27   0.803
  685                       23.29       0.00       0.00       2.46      17.57       1.12      18.69        0.63     0.26   0.803
  686                       23.29       0.00       0.00       2.46      17.57       1.12      18.69        0.80     0.32   0.803
  687                       23.29       0.00       0.00       9.86       4.43       2.50       6.93        1.25     0.44   0.297
  688                       23.29       0.00       0.00       2.46      17.57       1.12      18.69        0.37     0.15   0.803
  689                       23.29       0.00       0.00       2.46      17.57       1.12      18.69        0.35     0.14   0.803
  690                       23.29       0.00       0.00       2.46      17.57       1.12      18.69        0.87     0.35   0.803
  691                       23.29       0.00       0.00       2.46      17.57       1.12      18.69        1.11     0.45   0.803
  692                       23.29       0.00       0.00       2.46      17.57       1.12      18.69        0.62     0.25   0.803
  693                       23.29       0.00       0.00       2.46      17.57       1.12      18.69        0.63     0.26   0.803
  694                       23.29       0.00       0.00       2.46      17.57       1.12      18.69        1.14     0.46   0.803
  695                       23.29       0.00       0.00       2.46      17.57       1.12      18.69        0.25     0.10   0.803
  696                       23.29       0.00       0.00       2.46      17.57       1.12      18.69        0.34     0.14   0.803
  697                       23.29       0.00       0.00       2.46      17.57       1.12      18.69        0.40     0.16   0.803
  698                       23.29       0.00       0.00       2.46      17.57       1.12      18.69        0.69     0.28   0.803
  699                       23.29       0.00       0.00       2.46      17.57       1.12      18.69        0.54     0.22   0.803
  700                       23.29       0.00       0.00       2.46      17.57       1.12      18.69        0.68     0.28   0.803
  701                       23.29       0.00       0.00       2.46      17.57       1.12      18.69        0.51     0.21   0.803
  702                       23.29       0.00       0.00       2.46      17.57       1.12      18.69        0.31     0.13   0.803
  703                       23.29       0.00       0.00       2.46      17.57       1.12      18.69        0.49     0.20   0.803
  704                       23.29       0.00       0.00       2.46      17.57       1.12      18.69        0.50     0.21   0.803
  705                       23.29       0.00       0.00       2.46      17.57       1.12      18.69        0.27     0.11   0.803
  706                       23.29       0.00       0.00       2.46      17.57       1.12      18.69        0.22     0.09   0.803
  707                       23.29       0.00       0.00       2.46      17.57       1.12      18.69        0.44     0.18   0.803
  708                       23.29       0.00       0.00       2.46      17.57       1.12      18.69        0.61     0.25   0.803
  709                       23.29       0.00       0.00       2.46      17.57       1.12      18.69        0.29     0.12   0.803
  710                       23.29       0.00       0.00       2.46      17.57       1.12      18.69        0.19     0.08   0.803
  711                       23.29       0.00       0.00       2.46      17.57       1.12      18.69        0.16     0.06   0.803
  712                       23.29       0.00       0.00       2.46      17.57       1.12      18.69        0.46     0.19   0.803
  713                       23.29       0.00       0.00       2.46      17.57       1.12      18.69        0.19     0.08   0.803
  714                       23.29       0.00       0.00       2.46      17.57       1.12      18.69        0.19     0.08   0.803
  715                       23.29       0.00       0.00       2.46      17.57       1.12      18.69        0.19     0.08   0.803
  716                       23.29       0.00       0.00       2.46      17.57       1.12      18.69        0.19     0.08   0.803
  717                       23.29       0.00       0.00       2.46      17.57       1.12      18.69        0.19     0.08   0.803
  718                       23.29       0.00       0.00       2.46      17.57       1.12      18.69        0.28     0.11   0.803
  719                       23.29       0.00       0.00       2.46      17.57       1.12      18.69        0.28     0.11   0.803
  720                       23.29       0.00       0.00       2.46      17.57       1.12      18.69        0.28     0.11   0.803
  721                       23.29       0.00       0.00       2.46      17.57       1.12      18.69        0.28     0.11   0.803
  722                       23.29       0.00       0.00       2.46      17.57       1.12      18.69        0.28     0.11   0.803
  723                       23.29       0.00       0.00       2.46      17.57       1.12      18.69        0.28     0.11   0.803
  724                       23.29       0.00       0.00       2.46      17.57       1.12      18.69        0.28     0.11   0.803
  725                       23.29       0.00       0.00       2.46      17.57       1.12      18.69        0.28     0.11   0.803
  726                       23.29       0.00       0.00       2.46      17.57       1.12      18.69        0.28     0.11   0.803
  727                       23.29       0.00       0.00       2.46      17.57       1.12      18.69        0.28     0.11   0.803
  728                       23.29       0.00       0.00       2.46      17.57       1.12      18.69        0.28     0.11   0.803
  729                       23.29       0.00       0.00       2.46      17.57       1.12      18.69        0.28     0.11   0.803
  730                       23.29       0.00       0.00       2.46      17.57       1.12      18.69        0.28     0.11   0.803
  731                       23.29       0.00       0.00       2.46      17.57       1.12      18.69        0.28     0.11   0.803
  732                       23.29       0.00       0.00       2.46      17.57       1.12      18.69        0.28     0.11   0.803
  733                       23.29       0.00       0.00       2.46      17.57       1.12      18.69        0.28     0.11   0.803
  734                       23.29       0.00       0.00       2.46      17.57       1.12      18.69        0.28     0.11   0.803
  735                       23.29       0.00       0.00       2.46      17.57       1.12      18.69        0.28     0.11   0.803
  736                       23.29       0.00       0.00       2.46      17.57       1.12      18.69        0.28     0.11   0.803
  737                       23.29       0.00       0.00       2.46      17.57       1.12      18.69        0.28     0.11   0.803
  738                       23.29       0.00       0.00       2.46      17.57       1.12      18.69        0.28     0.11   0.803
  739                       23.29       0.00       0.00       2.46      17.57       1.12      18.69        0.28     0.11   0.803
  740                       23.29       0.00       0.00       2.46      17.57       1.12      18.69        0.28     0.11   0.803
  741                       23.29       0.00       0.00       2.46      17.57       1.12      18.69        0.28     0.11   0.803
  742                       23.29       0.00       0.00       2.46      17.57       1.12      18.69        0.28     0.11   0.803
  743                       23.29       0.00       0.00       2.46      17.57       1.12      18.69        0.28     0.11   0.803
  744                       23.29       0.00       0.00       2.46      17.57       1.12      18.69        0.19     0.08   0.803
  745                       23.29       0.00       0.00       0.00      17.57       2.81      20.37        0.31     0.12   0.875
  746                       23.29       0.00       0.00       0.00      17.57       2.81      20.37        0.31     0.12   0.875
  747                       23.29       0.00       0.00       0.00      17.57       2.81      20.37        0.41     0.16   0.875
  
  
  ******************
  Node Depth Summary
  ******************
  
  ---------------------------------------------------------------------------------
                                 Average  Maximum  Maximum  Time of Max    Reported
                                   Depth    Depth      HGL   Occurrence   Max Depth
  Node                 Type       Meters   Meters   Meters  days hr:min      Meters
  ---------------------------------------------------------------------------------
  1                    JUNCTION     0.48     1.41    18.26     0  01:53        1.41
  2                    JUNCTION     0.90     2.92    18.14     0  01:59        2.92
  3                    JUNCTION     0.44     1.64    18.14     0  02:01        1.64
  4                    JUNCTION     0.51     1.94    18.10     0  02:05        1.94
  5                    JUNCTION     0.53     1.99    18.10     0  02:05        1.99
  6                    JUNCTION     0.63     2.29    18.09     0  02:03        2.29
  7                    JUNCTION     0.72     2.53    18.07     0  02:02        2.53
  8                    JUNCTION     1.10     3.48    18.07     0  02:00        3.48
  9                    JUNCTION     1.07     3.40    18.08     0  02:01        3.40
  10                   JUNCTION     0.36     1.32    18.17     0  02:03        1.32
  11                   JUNCTION     0.48     1.56    18.18     0  02:01        1.56
  12                   JUNCTION     0.38     1.34    18.19     0  01:52        1.34
  13                   JUNCTION     0.48     1.62    18.19     0  01:55        1.62
  14                   JUNCTION     0.50     1.76    18.12     0  02:00        1.76
  15                   JUNCTION     0.57     2.03    18.07     0  01:58        2.03
  16                   JUNCTION     0.60     2.15    18.04     0  01:58        2.15
  17                   JUNCTION     0.64     2.29    18.03     0  01:56        2.29
  18                   JUNCTION     0.74     2.57    18.02     0  01:54        2.57
  19                   JUNCTION     0.79     2.86    18.00     0  01:50        2.86
  20                   JUNCTION     0.85     3.10    18.00     0  01:42        3.10
  21                   JUNCTION     0.22     1.17    18.02     0  01:49        1.17
  22                   JUNCTION     0.24     1.45    18.01     0  01:55        1.45
  23                   JUNCTION     0.19     1.16    18.01     0  01:56        1.16
  24                   JUNCTION     0.28     1.50    18.06     0  01:57        1.50
  25                   JUNCTION     0.31     1.28    18.13     0  02:02        1.28
  26                   JUNCTION     0.49     1.68    18.19     0  01:53        1.68
  27                   JUNCTION     0.50     1.77    18.15     0  02:00        1.77
  28                   JUNCTION     0.57     1.83    18.16     0  02:04        1.83
  29                   JUNCTION     0.73     2.29    18.13     0  02:00        2.29
  30                   JUNCTION     0.83     2.64    18.12     0  02:00        2.64
  31                   JUNCTION     0.61     2.03    18.15     0  01:55        2.03
  32                   JUNCTION     0.62     2.28    18.08     0  01:57        2.28
  33                   JUNCTION     0.66     2.45    18.05     0  01:56        2.45
  34                   JUNCTION     0.75     2.88    18.00     0  01:53        2.88
  35                   JUNCTION     0.79     3.01    18.00     0  01:50        3.01
  36                   JUNCTION     0.31     1.62    18.00     0  01:35        1.61
  37                   JUNCTION     0.90     3.24    17.99     0  01:42        3.24
  38                   JUNCTION     1.27     4.08    17.95     0  01:48        4.07
  39                   JUNCTION     1.10     3.79    17.97     0  01:48        3.79
  40                   JUNCTION     1.05     3.70    17.97     0  01:48        3.70
  41                   JUNCTION     0.87     3.26    17.99     0  01:50        3.25
  42                   JUNCTION     0.24     1.37    18.00     0  01:53        1.37
  43                   JUNCTION     0.48     1.70    18.05     0  01:50        1.70
  44                   JUNCTION     0.85     2.86    18.05     0  01:56        2.86
  45                   JUNCTION     1.38     4.05    18.04     0  01:58        4.05
  46                   JUNCTION     1.18     3.65    18.06     0  02:00        3.65
  47                   JUNCTION     1.47     4.22    18.00     0  01:56        4.22
  48                   JUNCTION     1.54     4.39    17.97     0  01:56        4.38
  49                   JUNCTION     0.35     1.80    18.00     0  01:36        1.80
  50                   JUNCTION     0.41     1.67    18.00     0  01:50        1.67
  51                   JUNCTION     0.52     1.88    18.04     0  01:48        1.88
  52                   JUNCTION     0.53     2.05    17.98     0  01:48        2.05
  53                   JUNCTION     0.68     2.65    17.94     0  01:44        2.64
  54                   JUNCTION     0.46     1.75    17.96     0  01:44        1.74
  55                   JUNCTION     0.29     1.37    17.98     0  01:48        1.36
  56                   JUNCTION     0.35     1.23    18.03     0  01:50        1.23
  57                   JUNCTION     1.83     4.94    17.88     0  01:50        4.93
  58                   JUNCTION     1.75     4.80    17.91     0  01:55        4.80
  59                   JUNCTION     1.66     4.65    17.94     0  01:50        4.64
  60                   JUNCTION     1.31     4.14    17.94     0  01:48        4.14
  61                   JUNCTION     1.34     4.19    17.91     0  01:50        4.19
  62                   JUNCTION     1.36     4.24    17.88     0  01:50        4.23
  63                   JUNCTION     1.54     4.57    17.83     0  01:50        4.57
  64                   JUNCTION     1.57     4.62    17.82     0  01:50        4.62
  65                   JUNCTION     1.63     4.71    17.79     0  01:50        4.70
  66                   JUNCTION     1.60     4.66    17.81     0  01:50        4.66
  67                   JUNCTION     1.66     4.74    17.77     0  01:50        4.74
  68                   JUNCTION     1.68     4.79    17.75     0  01:50        4.78
  69                   JUNCTION     1.71     4.82    17.72     0  01:50        4.82
  70                   JUNCTION     1.73     4.86    17.70     0  01:50        4.86
  71                   JUNCTION     1.76     4.89    17.68     0  01:52        4.89
  72                   JUNCTION     1.26     4.08    17.61     0  01:50        4.08
  73                   JUNCTION     1.07     3.69    17.70     0  01:49        3.68
  74                   JUNCTION     0.98     3.52    17.78     0  01:47        3.49
  75                   JUNCTION     0.95     3.40    17.80     0  01:47        3.39
  76                   JUNCTION     0.88     3.22    17.88     0  01:44        3.20
  77                   JUNCTION     0.85     3.10    17.88     0  01:44        3.10
  78                   JUNCTION     0.80     2.99    17.90     0  01:44        2.99
  79                   JUNCTION     0.76     2.88    17.92     0  01:44        2.87
  80                   JUNCTION     0.72     2.77    17.93     0  01:44        2.76
  81                   JUNCTION     0.25     1.34    17.96     0  01:44        1.32
  82                   JUNCTION     0.33     1.57    17.96     0  01:44        1.56
  83                   JUNCTION     0.46     1.81    17.96     0  01:44        1.79
  84                   JUNCTION     0.56     2.06    17.93     0  01:44        2.04
  85                   JUNCTION     0.61     2.22    17.90     0  01:46        2.19
  86                   JUNCTION     0.72     2.52    17.92     0  01:46        2.45
  87                   JUNCTION     0.75     2.71    17.80     0  01:47        2.66
  88                   JUNCTION     0.84     3.00    17.76     0  01:47        2.96
  89                   JUNCTION     0.30     1.37    17.82     0  01:47        1.35
  90                   JUNCTION     0.34     1.51    17.71     0  01:48        1.49
  91                   JUNCTION     0.36     1.58    17.68     0  01:48        1.58
  92                   JUNCTION     0.45     1.95    17.59     0  01:49        1.95
  93                   JUNCTION     1.45     4.39    17.58     0  01:53        4.38
  94                   JUNCTION     1.78     4.92    17.65     0  01:50        4.92
  95                   JUNCTION     0.34     1.54    17.59     0  01:50        1.53
  96                   JUNCTION     0.38     1.64    17.57     0  01:50        1.64
  97                   JUNCTION     0.17     1.25    17.75     0  01:45        1.05
  98                   JUNCTION     0.31     1.50    17.40     0  01:50        1.49
  99                   JUNCTION     0.21     1.19    17.44     0  01:50        1.19
  100                  JUNCTION     0.34     1.55    17.79     0  01:34        1.47
  101                  JUNCTION     0.24     1.50    18.00     0  01:34        1.37
  102                  JUNCTION     0.50     1.81    18.04     0  01:44        1.81
  103                  JUNCTION     0.45     1.72    18.09     0  01:45        1.72
  104                  JUNCTION     0.49     1.81    18.09     0  01:46        1.81
  105                  JUNCTION     0.41     1.61    18.11     0  01:48        1.61
  106                  JUNCTION     0.49     1.83    18.11     0  01:47        1.83
  107                  JUNCTION     0.37     1.61    18.11     0  01:54        1.61
  108                  JUNCTION     0.34     1.50    18.11     0  01:50        1.50
  109                  JUNCTION     0.54     1.95    18.12     0  01:42        1.95
  110                  JUNCTION     0.27     1.44    18.00     0  01:31        1.44
  111                  JUNCTION     0.57     2.20    18.00     0  01:33        2.19
  112                  JUNCTION     0.67     2.49    17.93     0  01:38        2.47
  113                  JUNCTION     0.57     2.11    17.93     0  01:33        2.05
  114                  JUNCTION     0.59     2.12    17.74     0  01:38        2.12
  115                  JUNCTION     0.52     1.86    17.74     0  01:38        1.86
  116                  JUNCTION     0.15     0.89    17.51     0  01:46        0.89
  117                  JUNCTION     0.43     1.75    17.50     0  01:47        1.75
  118                  JUNCTION     0.18     0.86    17.48     0  01:47        0.86
  119                  JUNCTION     0.37     1.74    17.29     0  01:50        1.74
  120                  JUNCTION     1.88     5.01    17.45     0  01:52        5.01
  121                  JUNCTION     1.88     5.02    17.49     0  01:53        5.02
  122                  JUNCTION     1.88     5.03    17.56     0  01:53        5.03
  123                  JUNCTION     1.47     4.42    17.57     0  01:53        4.42
  124                  JUNCTION     1.91     5.08    17.82     0  01:55        5.07
  125                  JUNCTION     0.70     2.27    17.93     0  01:44        2.27
  126                  JUNCTION     0.80     2.48    17.93     0  01:44        2.48
  127                  JUNCTION     0.86     2.59    17.95     0  01:44        2.59
  128                  JUNCTION     1.06     2.98    18.04     0  01:31        2.98
  129                  JUNCTION     1.14     3.14    18.00     0  01:24        3.13
  130                  JUNCTION     1.15     3.30    18.00     0  01:24        3.14
  131                  JUNCTION     1.13     3.45    18.00     0  01:29        3.23
  132                  JUNCTION     1.13     3.60    18.00     0  01:29        3.33
  133                  JUNCTION     1.24     3.71    17.69     0  01:47        3.70
  134                  JUNCTION     1.26     3.78    17.65     0  01:49        3.77
  135                  JUNCTION     1.28     3.84    17.61     0  01:50        3.83
  136                  JUNCTION     1.29     3.89    17.56     0  01:49        3.89
  137                  JUNCTION     1.30     3.94    17.50     0  01:49        3.94
  138                  JUNCTION     1.30     3.99    17.44     0  01:50        3.98
  139                  JUNCTION     1.29     3.99    17.35     0  01:50        3.99
  140                  JUNCTION     1.90     4.96    17.21     0  01:50        4.96
  141                  JUNCTION     1.87     4.89    17.08     0  01:50        4.89
  142                  JUNCTION     0.48     1.65    17.54     0  01:34        1.65
  143                  JUNCTION     0.53     2.18    17.30     0  01:53        2.18
  144                  JUNCTION     0.02     0.19    16.32     0  01:46        0.19
  145                  JUNCTION     0.54     2.00    17.39     0  01:39        2.00
  146                  JUNCTION     0.70     2.42    17.39     0  01:42        2.42
  147                  JUNCTION     0.30     1.90    18.00     0  01:32        1.37
  148                  JUNCTION     0.61     2.33    17.27     0  01:43        2.33
  149                  JUNCTION     0.26     1.91    18.00     0  01:33        1.90
  150                  JUNCTION     0.48     2.19    18.00     0  01:33        2.07
  151                  JUNCTION     0.68     2.48    18.01     0  01:28        2.48
  152                  JUNCTION     0.78     2.43    18.09     0  01:45        2.43
  153                  JUNCTION     0.57     2.05    18.11     0  01:53        2.05
  154                  JUNCTION     0.85     2.41    18.13     0  01:56        2.41
  155                  JUNCTION     0.89     2.37    18.16     0  02:03        2.37
  156                  JUNCTION     0.71     1.93    18.20     0  02:00        1.93
  157                  JUNCTION     0.44     1.54    18.16     0  02:00        1.54
  158                  JUNCTION     0.47     1.65    18.15     0  01:57        1.65
  159                  JUNCTION     0.52     1.80    18.17     0  01:48        1.80
  160                  JUNCTION     0.62     2.00    18.17     0  01:47        2.00
  161                  JUNCTION     1.99     5.21    17.72     0  01:55        5.21
  162                  JUNCTION     2.03     5.27    17.66     0  01:56        5.26
  163                  JUNCTION     2.06     5.31    17.63     0  01:56        5.31
  164                  JUNCTION     2.08     5.35    17.59     0  01:57        5.35
  165                  JUNCTION     2.11     5.38    17.54     0  01:56        5.38
  166                  JUNCTION     2.12     5.41    17.49     0  01:56        5.41
  167                  JUNCTION     2.14     5.44    17.44     0  01:56        5.44
  168                  JUNCTION     2.16     5.45    17.37     0  01:55        5.45
  169                  JUNCTION     2.17     5.47    17.30     0  01:54        5.47
  170                  JUNCTION     2.18     5.47    17.23     0  01:54        5.47
  171                  JUNCTION     2.19     5.48    17.15     0  01:54        5.48
  172                  JUNCTION     2.20     5.47    17.07     0  01:53        5.47
  173                  JUNCTION     2.21     5.47    16.99     0  01:53        5.47
  174                  JUNCTION     2.21     5.45    16.89     0  01:53        5.45
  175                  JUNCTION     2.22     5.44    16.80     0  01:53        5.44
  176                  JUNCTION     2.23     5.42    16.70     0  01:53        5.42
  177                  JUNCTION     2.46     5.70    16.60     0  01:53        5.69
  178                  JUNCTION     0.83     2.90    18.14     0  01:45        2.90
  179                  JUNCTION     0.66     2.39    16.95     0  01:49        2.39
  180                  JUNCTION     0.03     0.19    15.66     0  01:53        0.19
  181                  JUNCTION     0.50     1.91    16.88     0  01:36        1.91
  182                  JUNCTION     0.63     2.30    16.71     0  01:44        2.30
  183                  JUNCTION     0.06     0.21    17.06     0  01:37        0.21
  184                  JUNCTION     0.44     1.64    16.16     0  01:44        1.64
  185                  JUNCTION     0.08     0.66    17.51     0  01:35        0.43
  186                  JUNCTION     0.54     2.25    17.40     0  01:32        2.11
  187                  JUNCTION     0.93     2.67    16.86     0  01:32        2.63
  188                  JUNCTION     1.11     3.47    17.86     0  01:28        3.24
  189                  JUNCTION     1.16     3.34    17.98     0  01:35        3.33
  190                  JUNCTION     1.07     2.93    18.12     0  01:48        2.93
  191                  JUNCTION     1.01     2.64    18.13     0  01:59        2.64
  192                  JUNCTION     0.49     1.78    18.16     0  02:10        1.78
  193                  JUNCTION     0.70     2.33    18.14     0  02:03        2.33
  194                  JUNCTION     1.15     3.24    18.12     0  01:59        3.24
  195                  JUNCTION     0.36     1.30    18.15     0  01:52        1.30
  196                  JUNCTION     0.50     1.80    18.19     0  01:46        1.80
  197                  JUNCTION     0.64     2.22    18.14     0  01:46        2.22
  198                  JUNCTION     1.34     3.67    18.09     0  01:50        3.67
  199                  JUNCTION     1.47     3.99    18.06     0  01:45        3.99
  200                  JUNCTION     0.62     2.10    18.14     0  01:41        2.10
  201                  JUNCTION     0.47     1.66    18.14     0  01:43        1.66
  202                  JUNCTION     0.35     1.37    18.17     0  01:39        1.37
  203                  JUNCTION     0.26     1.48    18.01     0  01:31        1.48
  204                  JUNCTION     0.37     1.98    18.00     0  01:25        1.93
  205                  JUNCTION     1.34     4.18    18.00     0  01:27        4.07
  206                  JUNCTION     1.12     4.03    17.56     0  01:32        4.00
  207                  JUNCTION     0.23     1.66    18.00     0  01:28        1.64
  208                  JUNCTION     0.12     1.16    18.01     0  01:32        1.16
  209                  JUNCTION     0.63     1.58    15.60     0  01:33        1.58
  210                  JUNCTION     0.22     1.07    17.46     0  01:30        1.07
  211                  JUNCTION     0.16     0.57    16.30     0  01:30        0.56
  212                  JUNCTION     0.63     2.33    15.46     0  01:34        2.33
  213                  JUNCTION     0.48     1.50    14.35     0  01:35        1.50
  214                  JUNCTION     0.03     0.24    16.42     0  01:37        0.24
  215                  JUNCTION     0.49     1.05    14.54     0  01:41        1.05
  216                  JUNCTION     0.03     0.25    17.10     0  01:33        0.25
  217                  JUNCTION     0.50     0.98    14.00     0  01:41        0.98
  218                  JUNCTION     0.50     1.01    13.62     0  01:33        1.01
  219                  JUNCTION     0.49     0.97    13.44     0  01:33        0.97
  220                  JUNCTION     0.56     1.12    12.88     0  01:33        1.12
  221                  JUNCTION     0.63     1.32    12.52     0  01:36        1.32
  222                  JUNCTION     0.37     1.17    14.88     0  01:31        1.16
  223                  JUNCTION     0.42     1.50    15.54     0  01:32        1.49
  224                  JUNCTION     0.42     1.54    15.89     0  01:35        1.54
  225                  JUNCTION     0.03     0.19    15.02     0  01:55        0.19
  226                  JUNCTION     0.03     0.19    14.49     0  01:58        0.19
  227                  JUNCTION     0.03     0.18    13.94     0  02:03        0.18
  228                  JUNCTION     0.62     1.32    12.45     0  01:43        1.32
  229                  JUNCTION     0.56     1.92    15.93     0  01:53        1.92
  230                  JUNCTION     0.48     2.92    16.45     0  01:23        1.54
  231                  JUNCTION     0.42     1.87    14.93     0  01:23        1.21
  232                  JUNCTION     0.66     1.41    12.39     0  01:45        1.41
  233                  JUNCTION     1.03     3.55    18.16     0  01:34        3.55
  234                  JUNCTION     0.68     2.81    16.78     0  01:30        2.80
  235                  JUNCTION     0.42     1.51    14.99     0  01:30        1.51
  236                  JUNCTION     0.65     1.42    12.34     0  01:46        1.42
  237                  JUNCTION     2.30     5.08    15.60     0  01:54        5.08
  238                  JUNCTION     1.91     4.12    14.49     0  01:53        4.12
  239                  JUNCTION     1.54     3.19    13.41     0  01:52        3.19
  240                  JUNCTION     1.43     2.71    12.28     0  01:46        2.71
  241                  JUNCTION     1.68     4.27    15.82     0  01:55        4.27
  242                  JUNCTION     0.08     0.26    16.44     0  01:30        0.26
  243                  JUNCTION     0.12     0.39    15.81     0  01:30        0.39
  244                  JUNCTION     0.00     0.00    16.65     0  00:00        0.00
  245                  JUNCTION     0.74     1.93    13.65     0  01:42        1.93
  246                  JUNCTION     1.67     4.29    16.00     0  02:00        4.29
  247                  JUNCTION     0.02     0.27    16.64     0  01:43        0.27
  248                  JUNCTION     0.83     3.59    17.07     0  01:32        3.14
  249                  JUNCTION     0.71     2.62    15.70     0  01:44        2.62
  250                  JUNCTION     1.03     3.01    14.84     0  01:43        3.00
  251                  JUNCTION     1.67     4.34    16.20     0  02:01        4.34
  252                  JUNCTION     0.16     1.48    17.85     0  01:34        1.35
  253                  JUNCTION     0.89     3.67    17.31     0  01:32        3.36
  254                  JUNCTION     1.66     4.39    16.40     0  02:02        4.39
  255                  JUNCTION     0.40     1.77    18.14     0  01:38        1.77
  256                  JUNCTION     0.91     3.78    17.69     0  01:32        3.59
  257                  JUNCTION     0.31     1.79    18.06     0  01:32        1.79
  258                  JUNCTION     1.16     3.73    15.83     0  01:45        3.73
  259                  JUNCTION     1.66     4.44    16.60     0  02:01        4.44
  260                  JUNCTION     0.22     1.68    18.01     0  01:29        1.68
  261                  JUNCTION     0.90     3.87    17.98     0  01:28        3.69
  262                  JUNCTION     0.00     0.00    16.85     0  00:00        0.00
  263                  JUNCTION     1.21     3.97    16.21     0  01:44        3.97
  264                  JUNCTION     1.66     4.49    16.80     0  02:01        4.49
  265                  JUNCTION     0.75     3.24    18.00     0  01:27        3.24
  266                  JUNCTION     0.91     3.74    18.00     0  01:32        3.64
  267                  JUNCTION     0.93     3.56    17.13     0  01:44        3.55
  268                  JUNCTION     1.25     4.16    16.53     0  01:45        4.15
  269                  JUNCTION     1.63     4.51    16.97     0  02:00        4.51
  270                  JUNCTION     1.61     4.53    17.15     0  02:00        4.53
  271                  JUNCTION     0.58     2.57    17.93     0  01:39        2.53
  272                  JUNCTION     0.15     1.68    17.95     0  01:38        1.66
  273                  JUNCTION     0.98     3.76    17.54     0  01:40        3.75
  274                  JUNCTION     1.06     3.88    17.13     0  01:48        3.88
  275                  JUNCTION     1.58     4.54    17.29     0  01:58        4.53
  276                  JUNCTION     1.52     4.50    17.41     0  01:59        4.50
  277                  JUNCTION     1.37     4.32    17.49     0  01:58        4.31
  278                  JUNCTION     1.29     4.18    17.56     0  01:59        4.18
  279                  JUNCTION     0.43     1.81    18.03     0  01:42        1.81
  280                  JUNCTION     0.45     1.98    18.00     0  01:36        1.98
  281                  JUNCTION     0.86     3.52    18.02     0  01:42        3.52
  282                  JUNCTION     0.47     2.31    18.00     0  01:35        2.31
  283                  JUNCTION     0.50     2.49    17.98     0  01:37        2.41
  284                  JUNCTION     0.12     1.47    18.00     0  01:37        1.34
  285                  JUNCTION     0.97     3.79    17.76     0  01:39        3.77
  286                  JUNCTION     0.97     3.85    17.90     0  01:30        3.77
  287                  JUNCTION     0.95     3.83    18.00     0  01:30        3.75
  288                  JUNCTION     0.92     3.70    18.00     0  01:30        3.67
  289                  JUNCTION     0.24     1.45    18.01     0  01:46        1.45
  290                  JUNCTION     0.95     3.81    18.01     0  01:48        3.81
  291                  JUNCTION     1.07     4.10    18.01     0  01:46        4.10
  292                  JUNCTION     1.10     4.21    17.90     0  01:46        4.18
  293                  JUNCTION     1.09     4.20    17.74     0  01:46        4.13
  294                  JUNCTION     0.76     3.24    18.02     0  01:50        3.24
  295                  JUNCTION     0.12     1.17    18.02     0  01:47        1.17
  296                  JUNCTION     0.80     3.36    18.03     0  01:44        3.36
  297                  JUNCTION     0.74     3.20    18.05     0  01:45        3.20
  298                  JUNCTION     0.17     1.15    18.00     0  01:32        1.05
  299                  JUNCTION     1.21     4.03    17.60     0  01:58        4.02
  300                  JUNCTION     1.12     3.85    17.63     0  01:59        3.85
  301                  JUNCTION     1.02     3.67    17.64     0  02:00        3.66
  302                  JUNCTION     0.86     3.32    17.67     0  01:59        3.32
  303                  JUNCTION     0.22     1.66    18.00     0  01:31        1.66
  304                  JUNCTION     0.48     2.43    18.08     0  01:46        2.43
  305                  JUNCTION     0.38     2.02    18.10     0  01:49        2.02
  306                  JUNCTION     0.60     2.76    18.03     0  01:54        2.76
  307                  JUNCTION     0.40     1.51    18.18     0  01:49        1.51
  308                  JUNCTION     0.61     2.22    18.15     0  01:56        2.22
  309                  JUNCTION     0.33     1.31    18.16     0  02:00        1.31
  310                  JUNCTION     0.41     1.51    18.18     0  01:47        1.51
  311                  JUNCTION     0.38     1.41    18.21     0  01:47        1.41
  312                  JUNCTION     0.26     1.27    18.12     0  01:57        1.27
  313                  JUNCTION     0.32     1.30    18.15     0  01:49        1.30
  314                  JUNCTION     0.34     1.37    18.17     0  01:47        1.37
  315                  JUNCTION     0.32     1.33    18.13     0  01:47        1.33
  316                  JUNCTION     0.35     1.46    18.13     0  01:44        1.46
  317                  JUNCTION     0.36     1.50    18.30     0  01:42        1.50
  318                  JUNCTION     0.15     1.15    18.00     0  01:32        1.02
  319                  JUNCTION     0.12     1.15    18.00     0  01:33        1.15
  320                  JUNCTION     0.16     1.01    17.86     0  01:46        0.92
  321                  JUNCTION     0.13     1.09    17.76     0  01:47        0.76
  322                  JUNCTION     0.16     1.20    18.00     0  01:46        0.82
  323                  JUNCTION     0.06     1.15    18.00     0  01:43        0.72
  324                  JUNCTION     0.15     1.03    17.83     0  01:42        0.92
  325                  JUNCTION     0.15     1.06    17.86     0  01:42        0.88
  326                  JUNCTION     0.15     1.04    17.84     0  01:41        0.90
  327                  JUNCTION     0.19     1.05    17.72     0  01:50        1.04
  328                  JUNCTION     0.18     1.07    17.74     0  01:50        1.06
  329                  JUNCTION     0.10     1.15    18.00     0  01:40        0.90
  330                  JUNCTION     0.22     1.14    17.81     0  01:50        1.13
  331                  JUNCTION     0.10     0.97    17.82     0  01:40        0.94
  332                  JUNCTION     0.17     1.02    17.82     0  01:50        1.02
  333                  JUNCTION     0.11     1.15    18.00     0  01:39        0.96
  334                  JUNCTION     0.11     1.15    18.00     0  01:39        0.98
  335                  JUNCTION     0.18     1.09    17.89     0  01:50        1.08
  336                  JUNCTION     0.21     1.15    18.00     0  01:47        1.15
  337                  JUNCTION     0.43     1.54    18.21     0  01:49        1.54
  338                  JUNCTION     0.24     1.25    18.10     0  02:06        1.25
  339                  JUNCTION     0.32     1.28    18.13     0  02:06        1.28
  340                  JUNCTION     0.37     1.33    18.18     0  02:01        1.33
  341                  JUNCTION     0.29     1.31    18.16     0  02:10        1.31
  342                  JUNCTION     0.20     1.16    18.01     0  01:39        1.16
  343                  JUNCTION     0.15     1.16    18.01     0  01:48        1.16
  344                  JUNCTION     0.05     1.15    18.00     0  02:09        1.15
  345                  JUNCTION     0.12     1.19    18.04     0  01:55        1.19
  346                  JUNCTION     0.05     1.15    18.00     0  01:45        1.15
  348                  JUNCTION     0.00     0.00    16.85     0  00:00        0.00
  349                  JUNCTION     0.12     1.15    18.00     0  01:29        1.15
  350                  JUNCTION     0.33     1.31    18.16     0  02:10        1.31
  z_0512_001_066       JUNCTION     0.00     0.00    16.85     0  00:00        0.00
  z_0512_001_068       JUNCTION     0.00     0.00    16.85     0  00:00        0.00
  z_0512_001_070       JUNCTION     0.00     0.00    16.85     0  00:00        0.00
  z_0512_001_071       JUNCTION     0.23     1.30    18.15     0  01:44        1.30
  z_0512_001_072       JUNCTION     0.01     0.11    16.96     0  01:50        0.11
  z_0512_001_073       JUNCTION     0.00     0.00    16.85     0  00:00        0.00
  z_0512_001_074       JUNCTION     0.00     0.04    16.89     0  01:37        0.04
  z_0512_001_088       JUNCTION     0.06     0.61    17.46     0  01:30        0.61
  z_0512_001_090       JUNCTION     0.00     0.00    16.85     0  00:00        0.00
  z_0512_001_093       JUNCTION     0.00     0.00    16.85     0  00:00        0.00
  z_0512_001_094       JUNCTION     0.00     0.00    16.85     0  00:00        0.00
  z_0512_001_095       JUNCTION     0.00     0.00    16.85     0  00:00        0.00
  z_0512_001_096       JUNCTION     0.00     0.00    16.85     0  00:00        0.00
  z_0512_001_097       JUNCTION     0.21     1.31    18.16     0  01:40        1.31
  z_0512_001_099       JUNCTION     0.00     0.00    16.85     0  00:00        0.00
  z_0512_001_100       JUNCTION     0.00     0.00    16.85     0  00:00        0.00
  z_0512_001_101       JUNCTION     0.00     0.00    16.85     0  00:00        0.00
  z_0512_001_102       JUNCTION     0.00     0.00    16.85     0  00:00        0.00
  z_0512_001_103       JUNCTION     0.00     0.00    16.85     0  00:00        0.00
  z_0512_001_104       JUNCTION     0.03     1.15    18.00     0  01:34        1.15
  z_0512_001_106       JUNCTION     0.23     1.29    18.14     0  01:46        1.29
  z_0512_001_107       JUNCTION     0.14     1.20    18.05     0  01:38        1.20
  z_0512_001_108       JUNCTION     0.08     1.15    18.00     0  01:32        1.15
  z_0512_001_109       JUNCTION     0.07     1.15    18.00     0  01:32        1.15
  z_0512_001_111       JUNCTION     0.01     0.33    17.18     0  01:44        0.32
  z_0512_001_115       JUNCTION     0.01     0.26    17.11     0  01:50        0.26
  z_0512_001_122       JUNCTION     0.04     1.15    18.00     0  01:43        1.13
  z_0512_001_123       JUNCTION     0.07     1.15    18.00     0  01:42        1.15
  z_0512_001_124       JUNCTION     0.09     1.16    18.01     0  01:40        1.16
  347                  OUTFALL      1.05     1.74    11.13     0  01:47        1.74
  
  
  *******************
  Node Inflow Summary
  *******************
  
  -------------------------------------------------------------------------------------------------
                                  Maximum  Maximum                  Lateral       Total        Flow
                                  Lateral    Total  Time of Max      Inflow      Inflow     Balance
                                   Inflow   Inflow   Occurrence      Volume      Volume       Error
  Node                 Type           CMS      CMS  days hr:min    10^6 ltr    10^6 ltr     Percent
  -------------------------------------------------------------------------------------------------
  1                    JUNCTION     0.139    0.139     0  01:30        0.34       0.341       1.131
  2                    JUNCTION     0.133    0.581     0  01:29       0.327        1.38       1.268
  3                    JUNCTION     0.114    0.264     0  01:32        0.28       0.649       0.293
  4                    JUNCTION     0.000    0.374     0  01:30           0       0.957      -0.339
  5                    JUNCTION     0.000    0.373     0  01:30           0        0.99       0.908
  6                    JUNCTION     0.138    0.684     0  01:30       0.338        1.66      -0.425
  7                    JUNCTION     0.090    0.903     0  01:30       0.221        2.17       1.784
  8                    JUNCTION     0.000    0.709     0  01:28           0        2.07       0.049
  9                    JUNCTION     0.296    0.724     0  01:28       0.727        2.04      -0.627
  10                   JUNCTION     0.111    0.183     0  01:29       0.273        0.41       1.065
  11                   JUNCTION     0.139    0.179     0  01:30        0.34       0.519       0.533
  12                   JUNCTION     0.260    0.260     0  01:30       0.639       0.672       0.848
  13                   JUNCTION     0.161    0.258     0  01:26       0.394       0.665      -0.042
  14                   JUNCTION     0.000    0.216     0  01:26           0       0.743       0.829
  15                   JUNCTION     0.151    0.340     0  01:26        0.37        1.09      -0.144
  16                   JUNCTION     0.000    0.313     0  01:27           0        1.03       0.188
  17                   JUNCTION     0.000    0.275     0  01:27           0       0.876       0.186
  18                   JUNCTION     0.140    0.409     0  01:29       0.344        1.22      -0.002
  19                   JUNCTION     0.000    0.330     0  01:26           0        1.18       0.342
  20                   JUNCTION     0.076    0.398     0  01:26       0.187        1.36      -0.349
  21                   JUNCTION     0.132    0.133     0  01:32       0.323       0.361       2.058
  22                   JUNCTION     0.000    0.114     0  01:36           0       0.101       1.199
  23                   JUNCTION     0.000    0.102     0  01:35           0       0.154       3.570
  24                   JUNCTION     0.000    0.118     0  01:32           0      0.0691       7.006
  25                   JUNCTION     0.145    0.171     0  01:26       0.357       0.379       2.935
  26                   JUNCTION     0.189    0.189     0  01:30       0.464       0.468       0.181
  27                   JUNCTION     0.166    0.321     0  01:25       0.408       0.726       1.166
  28                   JUNCTION     0.000    0.109     0  01:17           0       0.349       1.001
  29                   JUNCTION     0.179    0.256     0  01:30       0.439       0.782       0.864
  30                   JUNCTION     0.000    0.602     0  01:27           0        1.39      -0.874
  31                   JUNCTION     0.268    0.400     0  01:30       0.658        1.08       1.049
  32                   JUNCTION     0.000    0.414     0  01:26           0        1.19      -0.554
  33                   JUNCTION     0.143    0.543     0  01:29       0.351        1.61       0.887
  34                   JUNCTION     0.000    0.564     0  01:30           0        1.73      -0.661
  35                   JUNCTION     0.000    0.578     0  01:31           0        1.85       0.104
  36                   JUNCTION     0.000    0.138     0  01:35           0        0.31      -0.265
  37                   JUNCTION     0.076    0.467     0  01:26       0.187        1.61       1.347
  38                   JUNCTION     0.144    1.197     0  01:26       0.353        5.39      -0.383
  39                   JUNCTION     0.257    0.761     0  01:42       0.632        3.45       0.144
  40                   JUNCTION     0.154    0.805     0  01:27       0.378        2.76      -0.493
  41                   JUNCTION     0.000    0.690     0  01:28           0           2       0.822
  42                   JUNCTION     0.000    0.156     0  01:39           0        0.24      -0.028
  43                   JUNCTION     0.358    0.358     0  01:30       0.879       0.953       3.188
  44                   JUNCTION     0.000    0.530     0  01:28           0        1.42       1.397
  45                   JUNCTION     0.000    1.433     0  01:30           0        4.42      -1.013
  46                   JUNCTION     0.114    0.748     0  01:26        0.28        2.33       0.842
  47                   JUNCTION     0.000    1.601     0  01:30           0        5.81      -0.096
  48                   JUNCTION     0.000    1.628     0  01:27           0        6.46       0.290
  49                   JUNCTION     0.000    0.181     0  01:35           0       0.171       1.252
  50                   JUNCTION     0.221    0.339     0  01:30       0.542       0.674       2.844
  51                   JUNCTION     0.395    0.453     0  01:30        0.97        1.05      -0.042
  52                   JUNCTION     0.000    0.347     0  01:27           0       0.863       0.834
  53                   JUNCTION     0.355    0.759     0  01:30       0.871         1.8      -0.529
  54                   JUNCTION     0.119    0.277     0  01:24       0.292       0.491       0.851
  55                   JUNCTION     0.000    0.168     0  01:25           0       0.228       0.714
  56                   JUNCTION     0.510    0.510     0  01:30        1.25        1.27       0.502
  57                   JUNCTION     0.000    2.005     0  01:34           0        8.63       0.135
  58                   JUNCTION     0.201    1.785     0  01:34       0.494        7.59      -0.067
  59                   JUNCTION     0.000    1.577     0  01:27           0        6.57      -0.380
  60                   JUNCTION     0.244    1.899     0  01:25       0.598        7.73      -0.143
  61                   JUNCTION     0.114    2.049     0  01:25        0.28        8.34      -0.066
  62                   JUNCTION     0.159    2.173     0  01:25       0.391        8.98       0.279
  63                   JUNCTION     0.141    2.171     0  01:25       0.346        9.36      -0.295
  64                   JUNCTION     0.279    2.236     0  01:24       0.684        10.1      -0.013
  65                   JUNCTION     0.138    2.164     0  01:23       0.338          11       0.043
  66                   JUNCTION     0.139    2.233     0  01:24        0.34        10.7      -0.021
  67                   JUNCTION     0.114    2.290     0  01:23        0.28        11.9      -0.061
  68                   JUNCTION     0.114    2.189     0  01:23        0.28        12.2       0.008
  69                   JUNCTION     0.000    2.139     0  01:44           0        12.5      -0.008
  70                   JUNCTION     0.000    2.157     0  01:41           0        12.9      -0.024
  71                   JUNCTION     0.114    2.252     0  01:41        0.28        13.5      -0.018
  72                   JUNCTION     0.136    0.730     0  01:25       0.333        3.56      -0.446
  73                   JUNCTION     0.183    0.742     0  01:26       0.451        3.24       0.826
  74                   JUNCTION     0.000    0.693     0  01:36           0        2.79      -0.022
  75                   JUNCTION     0.000    0.747     0  01:36           0        2.78      -0.016
  76                   JUNCTION     0.000    0.917     0  01:35           0         2.8      -0.172
  77                   JUNCTION     0.136    0.879     0  01:29       0.335        2.76      -0.202
  78                   JUNCTION     0.091    0.890     0  01:34       0.224        2.35      -0.426
  79                   JUNCTION     0.000    0.769     0  01:29           0        2.01      -0.258
  80                   JUNCTION     0.000    0.796     0  01:30           0        1.91      -0.190
  81                   JUNCTION     0.000    0.114     0  01:26           0       0.131       2.936
  82                   JUNCTION     0.000    0.126     0  01:27           0       0.173       0.028
  83                   JUNCTION     0.132    0.213     0  01:30       0.325        0.48       0.108
  84                   JUNCTION     0.126    0.229     0  01:29       0.308       0.656      -0.110
  85                   JUNCTION     0.000    0.169     0  01:27           0       0.571      -0.265
  86                   JUNCTION     0.323    0.415     0  01:28       0.793        1.26       0.210
  87                   JUNCTION     0.200    0.571     0  01:29       0.492        1.73       0.523
  88                   JUNCTION     0.000    0.542     0  01:29           0        1.73       0.638
  89                   JUNCTION     0.308    0.308     0  01:30       0.755       0.766       0.501
  90                   JUNCTION     0.119    0.369     0  01:30       0.306        1.04      -0.075
  91                   JUNCTION     0.123    0.490     0  01:30       0.303        1.34       0.725
  92                   JUNCTION     0.239    0.723     0  01:30       0.587        1.89      -0.038
  93                   JUNCTION     0.312    1.398     0  01:25       0.766        6.21      -0.287
  94                   JUNCTION     0.125    2.344     0  01:42       0.307          14       0.032
  95                   JUNCTION     0.457    0.606     0  01:30        1.12        1.57      -0.228
  96                   JUNCTION     0.226    0.822     0  01:30       0.555        2.13       2.440
  97                   JUNCTION     0.000    0.193     0  01:30           0       0.513       0.354
  98                   JUNCTION     0.065    0.747     0  01:30       0.159        2.04      -0.443
  99                   JUNCTION     0.138    0.310     0  01:30       0.338       0.881       0.188
  100                  JUNCTION     0.133    0.221     0  01:30       0.327       0.581       0.113
  101                  JUNCTION     0.000    0.155     0  01:33           0       0.252      -0.476
  102                  JUNCTION     0.088    0.400     0  01:34       0.215        1.62      -0.416
  103                  JUNCTION     0.140    0.298     0  01:25       0.344       0.908       0.262
  104                  JUNCTION     0.000    0.273     0  01:23           0       0.712      -1.027
  105                  JUNCTION     0.000    0.213     0  01:25           0       0.375      -0.096
  106                  JUNCTION     0.116    0.230     0  01:26       0.284       0.585      -0.654
  107                  JUNCTION     0.000    0.191     0  01:26           0       0.142       1.634
  108                  JUNCTION     0.000    0.077     0  01:27           0       0.094      -0.102
  109                  JUNCTION     0.270    0.405     0  01:28       0.664       0.935      -0.007
  110                  JUNCTION     0.000    0.244     0  01:29           0       0.301      -1.536
  111                  JUNCTION     0.147    0.290     0  01:31       0.361       0.945       0.809
  112                  JUNCTION     0.442    0.500     0  01:29        1.08        1.81       0.144
  113                  JUNCTION     0.076    0.310     0  01:28       0.187       0.905      -0.395
  114                  JUNCTION     0.000    0.221     0  01:28           0       0.734      -0.228
  115                  JUNCTION     0.114    0.410     0  01:23        0.28        1.67      -0.052
  116                  JUNCTION     0.000    0.127     0  01:33           0       0.198      -0.246
  117                  JUNCTION     0.000    0.248     0  01:34           0       0.571      -0.993
  118                  JUNCTION     0.000    0.097     0  01:29           0       0.138       0.855
  119                  JUNCTION     0.000    0.735     0  01:32           0        2.16       2.219
  120                  JUNCTION     0.000    3.255     0  01:35           0        22.5       0.028
  121                  JUNCTION     0.000    3.431     0  01:34           0        22.5      -0.139
  122                  JUNCTION     0.000    3.278     0  01:39           0        20.5      -0.033
  123                  JUNCTION     0.159    1.441     0  01:26       0.408        6.64       0.326
  124                  JUNCTION     0.389    1.903     0  01:38       0.955        9.74       0.026
  125                  JUNCTION     0.000    0.305     0  01:23           0       0.515       1.162
  126                  JUNCTION     0.000    0.280     0  01:25           0        0.63       0.002
  127                  JUNCTION     0.000    0.290     0  01:25           0       0.694       0.073
  128                  JUNCTION     0.754    0.754     0  01:30        1.85        2.13       0.091
  129                  JUNCTION     0.251    0.608     0  01:23       0.617        2.02       0.050
  130                  JUNCTION     0.154    0.684     0  01:24       0.378        2.19       0.076
  131                  JUNCTION     0.000    0.607     0  01:24           0        2.09       0.040
  132                  JUNCTION     0.139    0.638     0  01:27       0.342        2.38       0.159
  133                  JUNCTION     0.000    0.948     0  01:29           0        4.01      -0.471
  134                  JUNCTION     0.139    0.984     0  01:32        0.34        4.38      -0.017
  135                  JUNCTION     0.114    0.982     0  01:33        0.28        4.66       0.036
  136                  JUNCTION     0.000    0.901     0  01:34           0        4.66       0.033
  137                  JUNCTION     0.136    0.927     0  01:36       0.335           5       0.042
  138                  JUNCTION     0.212    1.047     0  01:24        0.52        5.54       0.025
  139                  JUNCTION     0.152    1.141     0  01:24       0.372        5.92       0.288
  140                  JUNCTION     0.136    4.076     0  01:24       0.333        28.8      -0.003
  141                  JUNCTION     0.221    4.661     0  01:33       0.542        31.6       0.249
  142                  JUNCTION     0.114    0.223     0  01:26        0.28       0.555       1.742
  143                  JUNCTION     0.000    0.173     0  01:36           0         0.6      -0.651
  144                  JUNCTION     0.000    0.060     0  01:41           0       0.084       0.371
  145                  JUNCTION     0.136    0.403     0  01:27       0.333        1.78      -0.109
  146                  JUNCTION     0.000    0.311     0  01:32           0         1.1      -0.518
  147                  JUNCTION     0.114    0.238     0  01:31        0.28       0.503       0.003
  148                  JUNCTION     0.000    0.576     0  01:33           0        2.17      -0.137
[...]
  402                         0.01      0.01      4.17      0.01         0.01
  197                         2.05      2.05      2.10      0.01         0.01
  465                         0.01      0.01      4.57      0.01         0.01
  468                         0.31      0.31      4.50      0.01         0.01
  466                         0.37      0.37      4.52      0.01         0.01
  219                         1.17      1.17      1.23      0.01         0.01
  218                         0.51      0.51      0.69      0.03         0.01
  274                         0.48      0.48      0.59      0.01         0.01
  230                         0.96      0.96      1.43      0.06         0.07
  430                         0.90      0.90      4.49      0.01         0.01
  104                         1.32      1.32      1.59      0.01         0.01
  429                         0.75      0.75      4.61      0.01         0.01
  352                         0.69      0.69      4.60      0.01         0.01
  241                         0.93      0.93      1.16      0.01         0.01
  8                           1.12      1.12      1.26      0.05         0.06
  357                         0.54      0.54      4.57      0.01         0.01
  9                           1.19      1.19      1.22      0.10         0.12
  14                          0.95      0.95      1.17      0.01         0.01
  382                         0.76      0.76      0.95      0.01         0.01
  381                         0.26      0.26      4.53      0.01         0.01
  12                          1.31      1.31      1.47      0.05         0.03
  433                         0.65      0.65      4.57      0.01         0.01
  102                         1.81      2.10      1.82      1.45         1.11
  60                          1.55      1.55      1.65      0.05         0.05
  525                         0.01      0.01      4.37      0.01         0.01
  504                         0.08      0.08      4.37      0.01         0.01
  322                         1.50      1.50      1.57      0.01         0.01
  340                         1.01      1.01      1.06      0.24         0.23
  315                         1.68      1.68      1.70      0.01         0.01
  255                         0.55      0.55      0.73      0.01         0.01
  403                         0.01      0.01      4.32      0.01         0.01
  337                         1.46      1.46      1.62      0.01         0.01
  38                          1.79      1.90      1.79      1.02         0.77
  76                          2.11      2.11      2.12      0.12         0.14
  400                         0.01      0.01      4.21      0.01         0.01
  198                         2.00      2.00      2.05      0.01         0.01
  476                         0.51      0.51      0.79      0.01         0.01
  220                         1.12      1.12      1.17      0.01         0.01
  481                         0.39      0.39      4.46      0.01         0.01
  385                         1.08      1.08      4.50      0.01         0.01
  279                         1.12      1.12      1.17      0.03         0.01
  240                         0.93      0.93      1.12      0.01         0.01
  353                         0.77      0.77      4.60      0.01         0.01
  239                         0.94      0.94      1.08      0.01         0.01
  10                          1.08      1.08      1.19      0.03         0.01
  355                         0.75      0.76      4.51      0.02         0.01
  11                          1.08      1.08      1.30      0.01         0.01
  69                          1.38      1.38      1.55      0.01         0.01
  61                          1.41      1.41      1.55      0.16         0.16
  103                         2.06      2.06      2.10      1.14         1.06
  522                         0.09      0.09      4.34      0.01         0.01
  323                         1.46      1.46      1.50      0.01         0.01
  338                         0.97      1.00      1.01      0.39         0.32
  314                         1.66      1.66      1.68      0.01         0.01
  256                         0.56      0.56      0.77      0.01         0.01
  520                         0.14      0.14      4.50      0.01         0.01
  401                         0.01      0.01      4.50      0.01         0.01
  37                          1.90      1.93      1.90      0.86         0.74
  336                         1.43      1.48      1.46      0.32         0.20
  75                          2.09      2.09      2.11      0.06         0.07
  398                         0.01      0.01      4.22      0.01         0.01
  199                         1.94      1.94      2.00      0.01         0.01
  229                         0.98      0.98      1.12      0.01         0.01
  221                         0.63      0.63      0.81      0.01         0.01
  238                         0.91      0.91      1.08      0.01         0.01
  354                         0.77      0.77      4.56      0.01         0.01
  388                         0.84      0.84      4.58      0.01         0.01
  384                         0.90      0.90      1.15      0.01         0.01
  356                         0.76      0.76      4.61      0.01         0.01
  237                         1.14      1.14      1.30      0.01         0.01
  67                          1.29      1.29      1.38      0.01         0.01
  431                         1.18      1.18      1.62      0.01         0.01
  63                          1.92      1.92      2.06      0.06         0.07
  62                          1.88      1.88      2.00      0.01         0.01
  521                         0.14      0.14      4.37      0.01         0.01
  503                         0.19      0.19      4.32      0.01         0.01
  324                         1.39      1.39      1.46      0.01         0.02
  523                         0.09      0.09      4.56      0.01         0.01
  506                         0.13      0.13      4.31      0.01         0.01
  312                         1.64      1.64      1.66      0.01         0.01
  258                         0.58      0.58      0.76      0.01         0.01
  518                         0.23      0.23      4.55      0.01         0.01
  399                         0.01      0.01      4.55      0.01         0.01
  36                          1.93      1.96      1.93      0.71         0.63
  335                         1.47      1.63      1.48      0.93         0.68
  74                          2.07      2.07      2.09      0.09         0.08
  396                         0.01      0.01      4.23      0.01         0.01
  222                         1.88      1.88      1.94      0.01         0.01
  228                         0.75      0.75      0.97      0.02         0.01
  236                         1.14      1.14      1.29      0.01         0.01
  66                          1.46      1.46      1.81      0.01         0.01
  65                          1.41      1.41      1.83      0.01         0.01
  64                          1.79      1.81      1.92      0.18         0.12
  517                         0.24      0.24      4.42      0.01         0.01
  325                         1.36      1.36      1.39      0.06         0.04
  313                         1.62      1.62      1.64      0.01         0.01
  259                         0.59      0.59      0.79      0.01         0.01
  516                         0.24      0.24      4.59      0.01         0.01
  397                         0.01      0.01      4.59      0.01         0.01
  34                          1.95      1.95      1.96      0.45         0.44
  334                         1.48      1.48      1.63      0.01         0.01
  73                          2.05      2.05      2.07      0.02         0.04
  394                         0.01      0.01      4.23      0.01         0.01
  225                         1.82      1.82      1.88      0.01         0.01
  480                         0.01      0.01      4.47      0.01         0.01
  389                         0.84      0.84      4.53      0.01         0.01
  234                         1.23      1.23      1.46      0.01         0.01
  386                         1.01      1.01      4.61      0.01         0.01
  1                           1.43      1.43      1.65      0.17         0.20
  387                         0.94      0.94      4.51      0.01         0.01
  515                         0.30      0.30      4.43      0.01         0.01
  502                         0.25      0.25      4.38      0.01         0.01
  326                         1.32      1.32      1.36      0.01         0.02
  311                         1.60      1.60      1.62      0.01         0.01
  260                         0.60      0.60      0.81      0.01         0.01
  514                         0.30      0.30      4.61      0.01         0.01
  395                         0.01      0.01      4.61      0.01         0.01
  33                          1.89      1.89      1.95      0.05         0.04
  333                         1.42      1.42      1.48      0.05         0.04
  72                          2.04      2.04      2.05      0.01         0.03
  478                         0.40      0.63      0.74      0.30         0.07
  392                         0.01      0.01      4.24      0.01         0.01
  226                         1.76      1.76      1.82      0.01         0.01
  513                         0.34      0.34      4.44      0.01         0.01
  327                         1.29      1.29      1.32      0.01         0.01
  507                         0.24      0.24      4.37      0.01         0.01
  310                         1.58      1.58      1.60      0.01         0.01
  261                         0.61      0.61      0.81      0.01         0.01
  512                         0.34      0.34      4.63      0.01         0.01
  393                         0.01      0.01      4.63      0.01         0.01
  32                          1.76      1.76      1.89      0.01         0.01
  332                         1.32      1.32      1.42      0.01         0.01
  71                          2.02      2.02      2.04      0.01         0.03
  227                         1.58      1.58      1.76      0.01         0.01
  511                         0.34      0.34      4.44      0.01         0.01
  501                         0.33      0.33      4.43      0.01         0.01
  329                         1.27      1.27      1.29      0.01         0.01
  309                         1.57      1.57      1.58      0.10         0.09
  262                         0.62      0.62      0.82      0.01         0.01
  510                         0.34      0.34      4.61      0.01         0.01
  31                          1.71      1.71      1.76      0.01         0.01
  331                         1.17      1.17      1.32      0.01         0.01
  479                         0.01      0.01      4.30      0.01         0.01
  70                          1.99      1.99      2.02      0.03         0.03
  390                         0.06      0.06      4.27      0.01         0.01
  273                         0.06      0.06      1.33      0.01         0.01
  509                         0.34      0.34      4.45      0.01         0.01
  500                         0.33      0.33      4.43      0.01         0.01
  299                         1.23      1.23      1.27      0.02         0.01
  508                         0.30      0.30      4.40      0.01         0.01
  308                         1.55      1.55      1.57      0.07         0.03
  263                         0.65      0.65      0.84      0.01         0.01
  391                         0.01      0.01      4.59      0.01         0.01
  30                          1.65      1.65      1.71      0.01         0.01
  330                         1.04      1.04      1.17      0.01         0.01
  29                          1.93      1.93      1.99      0.05         0.02
  495                         0.38      0.38      4.46      0.01         0.01
  486                         0.36      0.36      4.43      0.01         0.01
  298                         1.23      1.39      1.23      0.30         0.07
  307                         1.53      1.53      1.55      0.06         0.03
  264                         0.70      0.79      0.86      0.19         0.01
  300                         1.22      1.22      1.65      0.01         0.01
  496                         0.38      0.38      4.56      0.01         0.01
  372                         0.38      0.38      4.37      0.01         0.01
  303                         1.87      1.87      1.93      0.01         0.01
  497                         0.44      0.44      4.56      0.01         0.01
  487                         0.39      0.39      4.53      0.01         0.01
  297                         1.33      1.37      1.39      0.31         0.23
  282                         1.51      1.51      1.53      0.01         0.01
  265                         0.75      1.04      0.85      0.50         0.18
  301                         1.10      1.10      1.22      0.01         0.01
  302                         0.79      1.20      0.83      0.80         0.30
  304                         1.82      1.82      1.87      0.02         0.02
  272                         0.63      0.63      1.32      0.01         0.01
  498                         0.63      0.63      4.70      0.01         0.01
  488                         0.41      0.41      4.59      0.01         0.01
  283                         1.47      1.47      1.51      0.01         0.01
  281                         1.47      1.50      1.50      0.17         0.06
  499                         0.63      0.63      4.58      0.01         0.01
  296                         1.03      1.18      1.15      0.23         0.04
  305                         1.77      1.77      1.82      0.01         0.01
  113                         1.47      1.48      1.50      0.18         0.11
  285                         1.44      1.44      1.47      0.01         0.01
  293                         1.75      1.75      1.77      0.32         0.17
  294                         1.08      1.08      1.16      0.01         0.01
  494                         0.63      0.63      4.58      0.01         0.01
  489                         0.46      0.46      4.47      0.01         0.01
  101                         1.45      1.48      1.48      0.22         0.13
  286                         1.36      1.36      1.44      0.01         0.01
  280                         0.99      0.99      1.10      0.01         0.01
  493                         0.51      0.51      4.40      0.01         0.01
  287                         0.90      0.90      1.08      0.01         0.01
  288                         1.06      1.29      1.21      0.30         0.03
  292                         1.71      1.73      1.75      0.21         0.12
  90                          1.44      1.49      1.48      0.24         0.15
  485                         0.44      0.44      4.40      0.01         0.01
  484                         0.50      0.50      4.40      0.01         0.01
  124                         0.81      0.85      0.88      0.06         0.01
  490                         0.58      0.58      4.38      0.01         0.01
  278                         1.28      1.28      1.36      0.01         0.01
  491                         0.65      0.65      4.39      0.01         0.01
  290                         1.68      1.68      1.73      0.06         0.07
  271                         0.84      0.84      1.14      0.01         0.01
  289                         1.47      1.58      1.50      0.25         0.08
  492                         0.73      0.73      4.57      0.01         0.01
  440                         0.85      0.85      1.03      0.01         0.01
  79                          1.40      1.40      1.49      0.01         0.01
  268                         1.24      1.24      1.28      0.01         0.01
  135                         0.87      0.87      1.05      0.01         0.01
  224                         1.52      1.57      1.58      0.34         0.24
  317                         1.23      1.23      1.34      0.03         0.01
  291                         1.62      1.62      1.68      0.01         0.01
  68                          1.37      1.37      1.40      0.04         0.03
  410                         0.57      0.57      4.39      0.01         0.01
  257                         1.21      1.35      1.24      0.36         0.16
  146                         0.83      0.83      0.93      0.01         0.01
  482                         0.87      0.87      4.54      0.01         0.01
  212                         1.54      1.67      1.57      0.35         0.17
  190                         1.15      1.15      1.34      0.03         0.03
  328                         1.58      1.58      1.62      0.01         0.01
  519                         0.81      0.81      4.43      0.01         0.01
  477                         0.83      0.83      4.43      0.01         0.01
  306                         1.15      1.15      1.23      0.01         0.01
  447                         0.83      0.83      1.08      0.01         0.01
  57                          1.33      1.33      1.37      0.19         0.13
  246                         1.31      1.31      1.35      0.19         0.18
  157                         0.94      0.94      1.13      0.01         0.01
  24                          1.05      1.10      1.15      0.17         0.10
  201                         1.45      1.45      1.67      0.01         0.01
  339                         1.55      1.55      1.58      0.01         0.01
  295                         1.10      1.10      1.15      0.05         0.01
  2                           0.90      1.06      1.02      0.22         0.05
  46                          1.28      1.32      1.33      0.49         0.41
  383                         0.66      0.66      4.45      0.01         0.01
  235                         1.29      1.39      1.31      0.62         0.44
  168                         1.01      1.02      1.09      0.12         0.09
  13                          1.26      1.27      1.45      0.03         0.01
  112                         1.48      1.60      1.55      0.28         0.15
  266                         0.90      0.90      1.03      0.01         0.01
  284                         1.08      1.08      1.10      0.06         0.02
  454                         1.02      1.02      1.20      0.01         0.01
  35                          1.21      1.22      1.32      0.40         0.37
  179                         1.16      1.16      1.39      0.05         0.06
  367                         1.10      1.10      1.27      0.03         0.01
  350                         1.06      1.06      1.27      0.01         0.01
  483                         0.86      0.86      4.47      0.01         0.01
  233                         1.26      1.26      1.60      0.01         0.03
  232                         0.96      0.96      1.09      0.06         0.02
  267                         0.92      1.00      1.04      0.16         0.02
  223                         1.04      1.26      1.08      0.48         0.19
  369                         1.10      1.10      1.22      0.02         0.03
  373                         0.95      0.95      4.66      0.01         0.01
  270                         0.98      0.98      1.26      0.01         0.01
  269                         1.10      1.10      1.26      0.22         0.23
  

  Analysis begun on:  Wed Dec 22 20:05:25 2021
  Analysis ended on:  Wed Dec 22 20:05:26 2021
  Total elapsed time: 00:00:01