
  EPA STORM WATER MANAGEMENT MODEL - VERSION 5.1 (Build 5.3.0.dev0)
  --------------------------------------------------------------

  
  *********************************************************
  NOTE: The summary statistics displayed in this report are
  based on results found at every computational time step,  
  not just on results from each reporting time step.
  *********************************************************
  
  ****************
  Analysis Options
  ****************
  Flow Units ............... CMS
  Process Models:
    Rainfall/Runoff ........ YES
    RDII ................... NO
    Snowmelt ............... NO
    Groundwater ............ NO
    Flow Routing ........... YES
    Ponding Allowed ........ YES
    Water Quality .......... NO
  Infiltration Method ...... HORTON
  Flow Routing Method ...... DYNWAVE
  Surcharge Method ......... EXTRAN
  Starting Date ............ 12/15/2017 00:00:00
  Ending Date .............. 12/15/2017 06:00:00
  Antecedent Dry Days ...... 0.0
  Report Time Step ......... 00:01:00
  Wet Time Step ............ 00:01:00
  Dry Time Step ............ 06:00:00
  Routing Time Step ........ 30.00 sec
  Variable Time Step ....... YES
  Maximum Trials ........... 8
  Number of Threads ........ 1
  Head Tolerance ........... 0.001500 m
  
  
  **************************        Volume         Depth
  Runoff Quantity Continuity     hectare-m            mm
  **************************     ---------       -------
  Total Precipitation ......        11.436        23.286
  Evaporation Loss .........         0.000         0.000
  Infiltration Loss ........         1.331         2.710
  Surface Runoff ...........         8.976        18.277
  Final Storage ............         1.130         2.300
  Continuity Error (%) .....        -0.011
  
  
  **************************        Volume        Volume
  Flow Routing Continuity        hectare-m      10^6 ltr
  **************************     ---------     ---------
  Dry Weather Inflow .......         0.000         0.000
  Wet Weather Inflow .......         8.976        89.764
  Groundwater Inflow .......         0.000         0.000
  RDII Inflow ..............         0.000         0.000
  External Inflow ..........         0.000         0.000
  External Outflow .........         8.924        89.236
  Flooding Loss ............         0.000         0.000
  Evaporation Loss .........         0.000         0.000
  Exfiltration Loss ........         0.000         0.000
  Initial Stored Volume ....         0.000         0.000
  Final Stored Volume ......         0.047         0.473
  Continuity Error (%) .....         0.060
  
  
  *************************
  Highest Continuity Errors
  *************************
  Node 247 (-25.96%)
  Node 302 (7.67%)
  Node 24 (6.11%)
  Node 227 (4.80%)
  Node 272 (-4.33%)
  
  
  ***************************
  Time-Step Critical Elements
  ***************************
  Link 26 (40.84%)
  Link 223 (9.37%)
  Link 163 (8.90%)
  Link 365 (1.96%)
  Link 302 (1.82%)
  
  
  ********************************
  Highest Flow Instability Indexes
  ********************************
  Link 86 (21)
  Link 244 (18)
  Link 31 (17)
  Link 343 (16)
  Link 316 (15)
  
  
  *************************
  Routing Time Step Summary
  *************************
  Minimum Time Step           :     0.50 sec
  Average Time Step           :    10.06 sec
  Maximum Time Step           :    30.00 sec
  Percent in Steady State     :     0.64
  Average Iterations per Step :     4.74
  Percent Not Converging      :    34.79
  
  
  ***************************
  Subcatchment Runoff Summary
  ***************************
  
  ------------------------------------------------------------------------------------------------------------------------------
                            Total      Total      Total      Total     Imperv       Perv      Total       Total     Peak  Runoff
                           Precip      Runon       Evap      Infil     Runoff     Runoff     Runoff      Runoff   Runoff   Coeff
  Subcatchment                 mm         mm         mm         mm         mm         mm         mm    10^6 ltr      CMS
  ------------------------------------------------------------------------------------------------------------------------------
  532                       23.29       0.00       0.00       2.46      17.57       1.12      18.69        0.39     0.16   0.803
  533                       23.29       0.00       0.00       2.46      17.57       1.12      18.69        0.27     0.11   0.803
  534                       23.29       0.00       0.00       2.46      17.57       1.12      18.69        0.31     0.12   0.803
  535                       23.29       0.00       0.00       2.46      17.57       1.12      18.69        0.37     0.15   0.803
  536                       23.29       0.00       0.00       2.46      17.57       1.12      18.69        0.35     0.14   0.803
  537                       23.29       0.00       0.00       2.46      17.57       1.12      18.69        0.34     0.14   0.803
  538                       23.29       0.00       0.00       2.46      17.57       1.12      18.69        0.33     0.14   0.803
  539                       23.29       0.00       0.00       2.46      17.57       1.12      18.69        0.32     0.13   0.803
  540                       23.29       0.00       0.00       2.46      17.57       1.12      18.69        0.60     0.24   0.803
  541                       23.29       0.00       0.00       2.46      17.57       1.12      18.69        0.58     0.24   0.803
  542                       23.29       0.00       0.00       2.46      17.57       1.12      18.69        0.28     0.12   0.803
  543                       23.29       0.00       0.00       2.46      17.57       1.12      18.69        0.47     0.19   0.803
  544                       23.29       0.00       0.00       2.46      17.57       1.12      18.69        1.08     0.44   0.803
  545                       23.29       0.00       0.00       2.46      17.57       1.12      18.69        0.44     0.18   0.803
  546                       23.29       0.00       0.00       2.46      17.57       1.12      18.69        0.43     0.18   0.803
  547                       23.29       0.00       0.00       2.46      17.57       1.12      18.69        0.38     0.15   0.803
  548                       23.29       0.00       0.00       2.46      17.57       1.12      18.69        0.31     0.12   0.803
  549                       23.29       0.00       0.00       2.46      17.57       1.12      18.69        0.43     0.18   0.803
  550                       23.29       0.00       0.00       2.46      17.57       1.12      18.69        0.44     0.18   0.803
  551                       23.29       0.00       0.00       2.46      17.57       1.12      18.69        0.21     0.09   0.803
  552                       23.29       0.00       0.00       2.46      17.57       1.12      18.69        0.22     0.09   0.803
  553                       23.29       0.00       0.00       2.46      17.57       1.12      18.69        0.21     0.09   0.803
  554                       23.29       0.00       0.00       2.46      17.57       1.12      18.69        0.21     0.09   0.803
  555                       23.29       0.00       0.00       2.46      17.57       1.12      18.69        0.21     0.09   0.803
  556                       23.29       0.00       0.00       2.46      17.57       1.12      18.69        0.21     0.09   0.803
  557                       23.29       0.00       0.00       2.46      17.57       1.12      18.69        0.21     0.09   0.803
  558                       23.29       0.00       0.00       2.46      17.57       1.12      18.69        0.43     0.17   0.803
  559                       23.29       0.00       0.00       2.46      17.57       1.12      18.69        0.22     0.09   0.803
  560                       23.29       0.00       0.00       2.46      17.57       1.12      18.69        0.41     0.17   0.803
  561                       23.29       0.00       0.00       2.46      17.57       1.12      18.69        0.43     0.18   0.803
  562                       23.29       0.00       0.00       2.46      17.57       1.12      18.69        0.37     0.15   0.803
  563                       23.29       0.00       0.00       2.46      17.57       1.12      18.69        0.67     0.27   0.803
  564                       23.29       0.00       0.00       2.46      17.57       1.12      18.69        0.63     0.26   0.803
  565                       23.29       0.00       0.00       2.46      17.57       1.12      18.69        0.60     0.25   0.803
  566                       23.29       0.00       0.00       2.46      17.57       1.12      18.69        0.53     0.22   0.803
  567                       23.29       0.00       0.00       2.46      17.57       1.12      18.69        0.48     0.19   0.803
  568                       23.29       0.00       0.00       2.46      17.57       1.12      18.69        0.43     0.18   0.803
  569                       23.29       0.00       0.00       2.46      17.57       1.12      18.69        0.44     0.18   0.803
  570                       23.29       0.00       0.00       2.46      17.57       1.12      18.69        0.38     0.15   0.803
  571                       23.29       0.00       0.00       2.46      17.57       1.12      18.69        0.66     0.27   0.803
  572                       23.29       0.00       0.00       2.46      17.57       1.12      18.69        0.31     0.12   0.803
  573                       23.29       0.00       0.00       2.46      17.57       1.12      18.69        0.30     0.12   0.803
  574                       23.29       0.00       0.00       2.46      17.57       1.12      18.69        0.29     0.12   0.803
  575                       23.29       0.00       0.00       2.46      17.57       1.12      18.69        0.27     0.11   0.803
  576                       23.29       0.00       0.00       2.46      17.57       1.12      18.69        0.26     0.11   0.803
  577                       23.29       0.00       0.00       2.46      17.57       1.12      18.69        0.24     0.10   0.803
  578                       23.29       0.00       0.00       2.46      17.57       1.12      18.69        0.24     0.10   0.803
  579                       23.29       0.00       0.00       2.46      17.57       1.12      18.69        0.45     0.18   0.803
  580                       23.29       0.00       0.00       2.46      17.57       1.12      18.69        0.21     0.08   0.803
  581                       23.29       0.00       0.00       2.46      17.57       1.12      18.69        0.37     0.15   0.803
  582                       23.29       0.00       0.00       2.46      17.57       1.12      18.69        0.33     0.14   0.803
  583                       23.29       0.00       0.00       2.46      17.57       1.12      18.69        0.57     0.23   0.803
  584                       23.29       0.00       0.00       2.46      17.57       1.12      18.69        0.56     0.23   0.803
  585                       23.29       0.00       0.00       2.46      17.57       1.12      18.69        0.49     0.20   0.803
  586                       23.29       0.00       0.00       2.46      17.57       1.12      18.69        0.36     0.15   0.803
  587                       23.29       0.00       0.00       2.46      17.57       1.12      18.69        0.35     0.14   0.803
  588                       23.29       0.00       0.00       2.46      17.57       1.12      18.69        0.36     0.14   0.803
  589                       23.29       0.00       0.00       2.46      17.57       1.12      18.69        0.35     0.14   0.803
  590                       23.29       0.00       0.00       2.46      17.57       1.12      18.69        0.35     0.14   0.803
  591                       23.29       0.00       0.00       2.46      17.57       1.12      18.69        0.36     0.15   0.803
  592                       23.29       0.00       0.00       2.46      17.57       1.12      18.69        0.36     0.15   0.803
  593                       23.29       0.00       0.00       2.46      17.57       1.12      18.69        0.37     0.15   0.803
  594                       23.29       0.00       0.00       2.46      17.57       1.12      18.69        0.36     0.15   0.803
  595                       23.29       0.00       0.00       2.46      17.57       1.12      18.69        0.37     0.15   0.803
  596                       23.29       0.00       0.00       2.46      17.57       1.12      18.69        0.37     0.15   0.803
  597                       23.29       0.00       0.00       2.46      17.57       1.12      18.69        0.37     0.15   0.803
  598                       23.29       0.00       0.00       2.46      17.57       1.12      18.69        0.38     0.16   0.803
  599                       23.29       0.00       0.00       2.46      17.57       1.12      18.69        0.39     0.16   0.803
  600                       23.29       0.00       0.00       2.46      17.57       1.12      18.69        0.38     0.16   0.803
  601                       23.29       0.00       0.00       2.46      17.57       1.12      18.69        0.40     0.16   0.803
  602                       23.29       0.00       0.00       2.46      17.57       1.12      18.69        0.39     0.16   0.803
  603                       23.29       0.00       0.00       2.46      17.57       1.12      18.69        0.40     0.16   0.803
  604                       23.29       0.00       0.00       2.46      17.57       1.12      18.69        0.41     0.17   0.803
  605                       23.29       0.00       0.00       2.46      17.57       1.12      18.69        0.38     0.15   0.803
  606                       23.29       0.00       0.00       2.46      17.57       1.12      18.69        0.39     0.16   0.803
  607                       23.29       0.00       0.00       2.46      17.57       1.12      18.69        0.40     0.16   0.803
  608                       23.29       0.00       0.00       2.46      17.57       1.12      18.69        0.51     0.21   0.803
  609                       23.29       0.00       0.00       2.46      17.57       1.12      18.69        0.52     0.21   0.803
  610                       23.29       0.00       0.00       2.46      17.57       1.12      18.69        0.40     0.16   0.803
  611                       23.29       0.00       0.00       2.46      17.57       1.12      18.69        0.40     0.16   0.803
  612                       23.29       0.00       0.00       2.46      17.57       1.12      18.69        0.43     0.18   0.803
  613                       23.29       0.00       0.00       2.46      17.57       1.12      18.69        0.34     0.14   0.803
  614                       23.29       0.00       0.00       2.46      17.57       1.12      18.69        0.54     0.22   0.803
  615                       23.29       0.00       0.00       2.46      17.57       1.12      18.69        0.67     0.27   0.803
  616                       23.29       0.00       0.00       2.46      17.57       1.12      18.69        0.34     0.14   0.803
  617                       23.29       0.00       0.00       2.46      17.57       1.12      18.69        0.33     0.14   0.803
  618                       23.29       0.00       0.00       2.46      17.57       1.12      18.69        0.34     0.14   0.803
  619                       23.29       0.00       0.00       2.46      17.57       1.12      18.69        0.34     0.14   0.803
  620                       23.29       0.00       0.00       2.46      17.57       1.12      18.69        0.33     0.14   0.803
  621                       23.29       0.00       0.00       2.46      17.57       1.12      18.69        0.34     0.14   0.803
  622                       23.29       0.00       0.00       2.46      17.57       1.12      18.69        0.33     0.14   0.803
  623                       23.29       0.00       0.00       2.46      17.57       1.12      18.69        0.34     0.14   0.803
  624                       23.29       0.00       0.00       2.46      17.57       1.12      18.69        0.34     0.14   0.803
  625                       23.29       0.00       0.00       2.46      17.57       1.12      18.69        0.34     0.14   0.803
  626                       23.29       0.00       0.00       2.46      17.57       1.12      18.69        0.34     0.14   0.803
  627                       23.29       0.00       0.00       2.46      17.57       1.12      18.69        0.34     0.14   0.803
  628                       23.29       0.00       0.00       2.46      17.57       1.12      18.69        0.34     0.14   0.803
  629                       23.29       0.00       0.00       2.46      17.57       1.12      18.69        0.35     0.14   0.803
  630                       23.29       0.00       0.00       2.46      17.57       1.12      18.69        0.33     0.13   0.803
  631                       23.29       0.00       0.00       2.46      17.57       1.12      18.69        0.34     0.14   0.803
  632                       23.29       0.00       0.00       2.46      17.57       1.12      18.69        0.34     0.14   0.803
  633                       23.29       0.00       0.00       2.46      17.57       1.12      18.69        0.36     0.15   0.803
  634                       23.29       0.00       0.00       2.46      17.57       1.12      18.69        0.33     0.14   0.803
  635                       23.29       0.00       0.00       2.46      17.57       1.12      18.69        0.33     0.14   0.803
  636                       23.29       0.00       0.00       2.46      17.57       1.12      18.69        0.32     0.13   0.803
  637                       23.29       0.00       0.00       2.46      17.57       1.12      18.69        0.36     0.15   0.803
  638                       23.29       0.00       0.00       2.46      17.57       1.12      18.69        0.54     0.22   0.803
  639                       23.29       0.00       0.00       2.46      17.57       1.12      18.69        0.42     0.17   0.803
  640                       23.29       0.00       0.00       2.46      17.57       1.12      18.69        0.34     0.14   0.803
  641                       23.29       0.00       0.00       2.46      17.57       1.12      18.69        0.59     0.24   0.803
  642                       23.29       0.00       0.00       2.46      17.57       1.12      18.69        0.33     0.13   0.803
  643                       23.29       0.00       0.00       2.46      17.57       1.12      18.69        0.33     0.14   0.803
  644                       23.29       0.00       0.00       2.46      17.57       1.12      18.69        0.33     0.14   0.803
  645                       23.29       0.00       0.00       2.46      17.57       1.12      18.69        0.33     0.13   0.803
  646                       23.29       0.00       0.00       2.46      17.57       1.12      18.69        0.33     0.13   0.803
  647                       23.29       0.00       0.00       2.46      17.57       1.12      18.69        0.33     0.13   0.803
  648                       23.29       0.00       0.00       2.46      17.57       1.12      18.69        0.33     0.13   0.803
  649                       23.29       0.00       0.00       2.46      17.57       1.12      18.69        0.33     0.13   0.803
  650                       23.29       0.00       0.00       2.46      17.57       1.12      18.69        0.32     0.13   0.803
  651                       23.29       0.00       0.00       2.46      17.57       1.12      18.69        0.33     0.13   0.803
  652                       23.29       0.00       0.00       2.46      17.57       1.12      18.69        0.33     0.13   0.803
  653                       23.29       0.00       0.00       2.46      17.57       1.12      18.69        0.33     0.13   0.803
  654                       23.29       0.00       0.00       2.46      17.57       1.12      18.69        0.33     0.13   0.803
  655                       23.29       0.00       0.00       2.46      17.57       1.12      18.69        0.33     0.13   0.803
  656                       23.29       0.00       0.00       2.46      17.57       1.12      18.69        0.33     0.13   0.803
  657                       23.29       0.00       0.00       2.46      17.57       1.12      18.69        0.33     0.13   0.803
  658                       23.29       0.00       0.00       2.46      17.57       1.12      18.69        0.33     0.13   0.803
  659                       23.29       0.00       0.00       2.46      17.57       1.12      18.69        0.33     0.13   0.803
  660                       23.29       0.00       0.00       2.46      17.57       1.12      18.69        0.33     0.13   0.803
  661                       23.29       0.00       0.00       2.46      17.57       1.12      18.69        0.33     0.14   0.803
  662                       23.29       0.00       0.00       2.46      17.57       1.12      18.69        0.50     0.20   0.803
  663                       23.29       0.00       0.00       2.46      17.57       1.12      18.69        0.33     0.14   0.803
  664                       23.29       0.00       0.00       2.46      17.57       1.12      18.69        1.57     0.64   0.803
  665                       23.29       0.00       0.00       2.46      17.57       1.12      18.69        1.42     0.58   0.803
  666                       23.29       0.00       0.00       2.46      17.57       1.12      18.69        1.12     0.46   0.803
  667                       23.29       0.00       0.00       2.46      17.57       1.12      18.69        0.60     0.24   0.803
  668                       23.29       0.00       0.00       2.46      17.57       1.12      18.69        0.49     0.20   0.803
  669                       23.29       0.00       0.00       2.46      17.57       1.12      18.69        0.50     0.20   0.803
  670                       23.29       0.00       0.00       2.46      17.57       1.12      18.69        0.49     0.20   0.803
  671                       23.29       0.00       0.00       2.46      17.57       1.12      18.69        0.49     0.20   0.803
  672                       23.29       0.00       0.00       2.46      17.57       1.12      18.69        0.75     0.30   0.803
  673                       23.29       0.00       0.00       2.46      17.57       1.12      18.69        0.64     0.26   0.803
  674                       23.29       0.00       0.00       2.46      17.57       1.12      18.69        0.93     0.38   0.803
  675                       23.29       0.00       0.00       2.46      17.57       1.12      18.69        0.88     0.36   0.803
  676                       23.29       0.00       0.00       2.46      17.57       1.12      18.69        0.85     0.35   0.803
  677                       23.29       0.00       0.00       2.46      17.57       1.12      18.69        0.75     0.30   0.803
  678                       23.29       0.00       0.00       2.46      17.57       1.12      18.69        0.77     0.31   0.803
  679                       23.29       0.00       0.00       2.46      17.57       1.12      18.69        0.66     0.27   0.803
  680                       23.29       0.00       0.00       2.46      17.57       1.12      18.69        0.28     0.11   0.803
  681                       23.29       0.00       0.00       2.46      17.57       1.12      18.69        0.50     0.21   0.803
  682                       23.29       0.00       0.00       2.46      17.57       1.12      18.69        0.41     0.17   0.803
  683                       23.29       0.00       0.00       2.46      17.57       1.12      18.69        0.41     0.17   0.803
  684                       23.29       0.00       0.00       2.46      17.57       1.12      18.69        0.66     0.27   0.803
  685                       23.29       0.00       0.00       2.46      17.57       1.12      18.69        0.63     0.26   0.803
  686                       23.29       0.00       0.00       2.46      17.57       1.12      18.69        0.80     0.32   0.803
  687                       23.29       0.00       0.00       9.86       4.43       2.50       6.93        1.25     0.44   0.297
  688                       23.29       0.00       0.00       2.46      17.57       1.12      18.69        0.37     0.15   0.803
  689                       23.29       0.00       0.00       2.46      17.57       1.12      18.69        0.35     0.14   0.803
  690                       23.29       0.00       0.00       2.46      17.57       1.12      18.69        0.87     0.35   0.803
  691                       23.29       0.00       0.00       2.46      17.57       1.12      18.69        1.11     0.45   0.803
  692                       23.29       0.00       0.00       2.46      17.57       1.12      18.69        0.62     0.25   0.803
  693                       23.29       0.00       0.00       2.46      17.57       1.12      18.69        0.63     0.26   0.803
  694                       23.29       0.00       0.00       2.46      17.57       1.12      18.69        1.14     0.46   0.803
  695                       23.29       0.00       0.00       2.46      17.57       1.12      18.69        0.25     0.10   0.803
  696                       23.29       0.00       0.00       2.46      17.57       1.12      18.69        0.34     0.14   0.803
  697                       23.29       0.00       0.00       2.46      17.57       1.12      18.69        0.40     0.16   0.803
  698                       23.29       0.00       0.00       2.46      17.57       1.12      18.69        0.69     0.28   0.803
  699                       23.29       0.00       0.00       2.46      17.57       1.12      18.69        0.54     0.22   0.803
  700                       23.29       0.00       0.00       2.46      17.57       1.12      18.69        0.68     0.28   0.803
  701                       23.29       0.00       0.00       2.46      17.57       1.12      18.69        0.51     0.21   0.803
  702                       23.29       0.00       0.00       2.46      17.57       1.12      18.69        0.31     0.13   0.803
  703                       23.29       0.00       0.00       2.46      17.57       1.12      18.69        0.49     0.20   0.803
  704                       23.29       0.00       0.00       2.46      17.57       1.12      18.69        0.50     0.21   0.803
  705                       23.29       0.00       0.00       2.46      17.57       1.12      18.69        0.27     0.11   0.803
  706                       23.29       0.00       0.00       2.46      17.57       1.12      18.69        0.22     0.09   0.803
  707                       23.29       0.00       0.00       2.46      17.57       1.12      18.69        0.44     0.18   0.803
  708                       23.29       0.00       0.00       2.46      17.57       1.12      18.69        0.61     0.25   0.803
  709                       23.29       0.00       0.00       2.46      17.57       1.12      18.69        0.29     0.12   0.803
  710                       23.29       0.00       0.00       2.46      17.57       1.12      18.69        0.19     0.08   0.803
  711                       23.29       0.00       0.00       2.46      17.57       1.12      18.69        0.16     0.06   0.803
  712                       23.29       0.00       0.00       2.46      17.57       1.12      18.69        0.46     0.19   0.803
  713                       23.29       0.00       0.00       2.46      17.57       1.12      18.69        0.19     0.08   0.803
  714                       23.29       0.00       0.00       2.46      17.57       1.12      18.69        0.19     0.08   0.803
  715                       23.29       0.00       0.00       2.46      17.57       1.12      18.69        0.19     0.08   0.803
  716                       23.29       0.00       0.00       2.46      17.57       1.12      18.69        0.19     0.08   0.803
  717                       23.29       0.00       0.00       2.46      17.57       1.12      18.69        0.19     0.08   0.803
  718                       23.29       0.00       0.00       2.46      17.57       1.12      18.69        0.28     0.11   0.803
  719                       23.29       0.00       0.00       2.46      17.57       1.12      18.69        0.28     0.11   0.803
  720                       23.29       0.00       0.00       2.46      17.57       1.12      18.69        0.28     0.11   0.803
  721                       23.29       0.00       0.00       2.46      17.57       1.12      18.69        0.28     0.11   0.803
  722                       23.29       0.00       0.00       2.46      17.57       1.12      18.69        0.28     0.11   0.803
  723                       23.29       0.00       0.00       2.46      17.57       1.12      18.69        0.28     0.11   0.803
  724                       23.29       0.00       0.00       2.46      17.57       1.12      18.69        0.28     0.11   0.803
  725                       23.29       0.00       0.00       2.46      17.57       1.12      18.69        0.28     0.11   0.803
  726                       23.29       0.00       0.00       2.46      17.57       1.12      18.69        0.28     0.11   0.803
  727                       23.29       0.00       0.00       2.46      17.57       1.12      18.69        0.28     0.11   0.803
  728                       23.29       0.00       0.00       2.46      17.57       1.12      18.69        0.28     0.11   0.803
  729                       23.29       0.00       0.00       2.46      17.57       1.12      18.69        0.28     0.11   0.803
  730                       23.29       0.00       0.00       2.46      17.57       1.12      18.69        0.28     0.11   0.803
  731                       23.29       0.00       0.00       2.46      17.57       1.12      18.69        0.28     0.11   0.803
  732                       23.29       0.00       0.00       2.46      17.57       1.12      18.69        0.28     0.11   0.803
  733                       23.29       0.00       0.00       2.46      17.57       1.12      18.69        0.28     0.11   0.803
  734                       23.29       0.00       0.00       2.46      17.57       1.12      18.69        0.28     0.11   0.803
  735                       23.29       0.00       0.00       2.46      17.57       1.12      18.69        0.28     0.11   0.803
  736                       23.29       0.00       0.00       2.46      17.57       1.12      18.69        0.28     0.11   0.803
  737                       23.29       0.00       0.00       2.46      17.57       1.12      18.69        0.28     0.11   0.803
  738                       23.29       0.00       0.00       2.46      17.57       1.12      18.69        0.28     0.11   0.803
  739                       23.29       0.00       0.00       2.46      17.57       1.12      18.69        0.28     0.11   0.803
  740                       23.29       0.00       0.00       2.46      17.57       1.12      18.69        0.28     0.11   0.803
  741                       23.29       0.00       0.00       2.46      17.57       1.12      18.69        0.28     0.11   0.803
  742                       23.29       0.00       0.00       2.46      17.57       1.12      18.69        0.28     0.11   0.803
  743                       23.29       0.00       0.00       2.46      17.57       1.12      18.69        0.28     0.11   0.803
  744                       23.29       0.00       0.00       2.46      17.57       1.12      18.69        0.19     0.08   0.803
  745                       23.29       0.00       0.00       0.00      17.57       2.81      20.37        0.31     0.12   0.875
  746                       23.29       0.00       0.00       0.00      17.57       2.81      20.37        0.31     0.12   0.875
  747                       23.29       0.00       0.00       0.00      17.57       2.81      20.37        0.41     0.16   0.875
  
  
  ******************
  Node Depth Summary
  ******************
  
  ---------------------------------------------------------------------------------
                                 Average  Maximum  Maximum  Time of Max    Reported
                                   Depth    Depth      HGL   Occurrence   Max Depth
  Node                 Type       Meters   Meters   Meters  days hr:min      Meters
  ---------------------------------------------------------------------------------
  1                    JUNCTION     0.48     1.41    18.26     0  01:53        1.41
  2                    JUNCTION     0.91     2.92    18.14     0  01:59        2.92
  3                    JUNCTION     0.45     1.64    18.14     0  02:01        1.64
  4                    JUNCTION     0.52     1.94    18.10     0  02:05        1.94
  5                    JUNCTION     0.53     1.99    18.10     0  02:05        1.99
  6                    JUNCTION     0.64     2.29    18.09     0  02:03        2.29
  7                    JUNCTION     0.73     2.53    18.07     0  02:01        2.53
  8                    JUNCTION     1.11     3.48    18.07     0  02:00        3.48
  9                    JUNCTION     1.08     3.40    18.08     0  01:59        3.40
  10                   JUNCTION     0.36     1.32    18.17     0  02:02        1.32
  11                   JUNCTION     0.49     1.56    18.18     0  02:01        1.56
  12                   JUNCTION     0.38     1.34    18.19     0  01:53        1.34
  13                   JUNCTION     0.49     1.62    18.18     0  01:55        1.62
  14                   JUNCTION     0.51     1.76    18.12     0  02:00        1.76
  15                   JUNCTION     0.58     2.03    18.07     0  01:58        2.03
  16                   JUNCTION     0.61     2.15    18.04     0  01:58        2.15
  17                   JUNCTION     0.65     2.29    18.03     0  01:54        2.29
  18                   JUNCTION     0.75     2.57    18.02     0  01:53        2.57
  19                   JUNCTION     0.80     2.86    18.00     0  01:47        2.86
  20                   JUNCTION     0.87     3.10    18.00     0  01:42        3.10
  21                   JUNCTION     0.23     1.17    18.02     0  01:49        1.17
  22                   JUNCTION     0.24     1.45    18.01     0  01:55        1.45
  23                   JUNCTION     0.20     1.16    18.01     0  01:56        1.16
  24                   JUNCTION     0.28     1.50    18.06     0  01:57        1.50
  25                   JUNCTION     0.31     1.27    18.12     0  02:02        1.27
  26                   JUNCTION     0.50     1.68    18.19     0  01:53        1.68
  27                   JUNCTION     0.50     1.77    18.15     0  02:00        1.77
  28                   JUNCTION     0.57     1.83    18.16     0  02:04        1.83
  29                   JUNCTION     0.74     2.29    18.12     0  01:59        2.29
  30                   JUNCTION     0.84     2.64    18.12     0  02:00        2.64
  31                   JUNCTION     0.62     2.03    18.15     0  01:55        2.03
  32                   JUNCTION     0.63     2.28    18.08     0  01:56        2.28
  33                   JUNCTION     0.67     2.45    18.04     0  01:56        2.45
  34                   JUNCTION     0.76     2.88    18.00     0  01:53        2.88
  35                   JUNCTION     0.80     3.01    18.00     0  01:48        3.01
  36                   JUNCTION     0.32     1.61    18.00     0  01:35        1.61
  37                   JUNCTION     0.91     3.24    17.99     0  01:46        3.24
  38                   JUNCTION     1.29     4.08    17.95     0  01:48        4.07
  39                   JUNCTION     1.12     3.79    17.96     0  01:50        3.78
  40                   JUNCTION     1.07     3.70    17.97     0  01:50        3.70
  41                   JUNCTION     0.88     3.25    17.99     0  01:50        3.25
  42                   JUNCTION     0.25     1.37    18.00     0  01:53        1.37
  43                   JUNCTION     0.48     1.70    18.05     0  01:50        1.70
  44                   JUNCTION     0.86     2.86    18.05     0  01:56        2.86
  45                   JUNCTION     1.40     4.05    18.03     0  01:59        4.05
  46                   JUNCTION     1.19     3.65    18.06     0  02:00        3.65
  47                   JUNCTION     1.49     4.22    18.00     0  01:57        4.22
  48                   JUNCTION     1.56     4.39    17.97     0  01:55        4.38
  49                   JUNCTION     0.35     1.80    18.00     0  01:36        1.80
  50                   JUNCTION     0.41     1.67    18.00     0  01:50        1.67
  51                   JUNCTION     0.53     1.88    18.04     0  01:48        1.88
  52                   JUNCTION     0.54     2.05    17.98     0  01:48        2.05
  53                   JUNCTION     0.69     2.66    17.95     0  01:44        2.63
  54                   JUNCTION     0.47     1.76    17.96     0  01:44        1.74
  55                   JUNCTION     0.29     1.36    17.98     0  01:48        1.36
  56                   JUNCTION     0.35     1.23    18.03     0  01:50        1.23
  57                   JUNCTION     1.85     4.93    17.87     0  01:50        4.93
  58                   JUNCTION     1.77     4.80    17.91     0  01:50        4.79
  59                   JUNCTION     1.68     4.65    17.93     0  01:50        4.64
  60                   JUNCTION     1.33     4.15    17.94     0  01:49        4.15
  61                   JUNCTION     1.36     4.19    17.91     0  01:49        4.18
  62                   JUNCTION     1.38     4.23    17.88     0  01:49        4.23
  63                   JUNCTION     1.56     4.56    17.83     0  01:50        4.56
  64                   JUNCTION     1.59     4.62    17.82     0  01:50        4.61
  65                   JUNCTION     1.65     4.71    17.79     0  01:50        4.70
  66                   JUNCTION     1.62     4.66    17.80     0  01:50        4.66
  67                   JUNCTION     1.68     4.74    17.77     0  01:50        4.74
  68                   JUNCTION     1.70     4.79    17.75     0  01:50        4.79
  69                   JUNCTION     1.73     4.82    17.73     0  01:50        4.81
  70                   JUNCTION     1.75     4.87    17.71     0  01:50        4.86
  71                   JUNCTION     1.78     4.89    17.68     0  01:50        4.89
  72                   JUNCTION     1.28     4.08    17.61     0  01:50        4.07
  73                   JUNCTION     1.09     3.69    17.70     0  01:49        3.69
  74                   JUNCTION     1.00     3.51    17.77     0  01:47        3.49
  75                   JUNCTION     0.96     3.40    17.80     0  01:47        3.39
  76                   JUNCTION     0.89     3.28    17.93     0  01:44        3.20
  77                   JUNCTION     0.86     3.12    17.89     0  01:44        3.10
  78                   JUNCTION     0.81     3.02    17.92     0  01:44        2.99
  79                   JUNCTION     0.77     2.89    17.93     0  01:44        2.88
  80                   JUNCTION     0.73     2.78    17.95     0  01:44        2.76
  81                   JUNCTION     0.26     1.34    17.96     0  01:44        1.32
  82                   JUNCTION     0.34     1.59    17.97     0  01:44        1.56
  83                   JUNCTION     0.46     1.82    17.98     0  01:44        1.80
  84                   JUNCTION     0.57     2.09    17.96     0  01:44        2.06
  85                   JUNCTION     0.62     2.22    17.89     0  01:47        2.20
  86                   JUNCTION     0.73     2.51    17.91     0  01:46        2.45
  87                   JUNCTION     0.76     2.71    17.81     0  01:47        2.66
  88                   JUNCTION     0.86     3.00    17.76     0  01:47        2.96
  89                   JUNCTION     0.31     1.37    17.82     0  01:47        1.33
  90                   JUNCTION     0.35     1.51    17.72     0  01:48        1.49
  91                   JUNCTION     0.37     1.58    17.68     0  01:48        1.58
  92                   JUNCTION     0.46     1.95    17.59     0  01:49        1.95
  93                   JUNCTION     1.47     4.39    17.59     0  01:53        4.38
  94                   JUNCTION     1.80     4.92    17.65     0  01:50        4.92
  95                   JUNCTION     0.34     1.54    17.59     0  01:50        1.53
  96                   JUNCTION     0.39     1.64    17.57     0  01:50        1.64
  97                   JUNCTION     0.17     1.09    17.59     0  01:47        1.03
  98                   JUNCTION     0.32     1.49    17.40     0  01:50        1.49
  99                   JUNCTION     0.21     1.19    17.44     0  01:50        1.19
  100                  JUNCTION     0.34     1.57    17.80     0  01:34        1.48
  101                  JUNCTION     0.25     1.50    18.00     0  01:34        1.37
  102                  JUNCTION     0.51     1.81    18.04     0  01:44        1.81
  103                  JUNCTION     0.46     1.72    18.09     0  01:45        1.72
  104                  JUNCTION     0.49     1.81    18.09     0  01:46        1.81
  105                  JUNCTION     0.42     1.61    18.11     0  01:48        1.61
  106                  JUNCTION     0.49     1.83    18.11     0  01:48        1.83
  107                  JUNCTION     0.37     1.61    18.11     0  01:54        1.61
  108                  JUNCTION     0.35     1.50    18.11     0  01:50        1.50
  109                  JUNCTION     0.55     1.95    18.12     0  01:41        1.95
  110                  JUNCTION     0.27     1.44    18.00     0  01:31        1.44
  111                  JUNCTION     0.58     2.20    18.00     0  01:33        2.20
  112                  JUNCTION     0.68     2.50    17.94     0  01:33        2.48
  113                  JUNCTION     0.57     2.10    17.92     0  01:33        2.05
  114                  JUNCTION     0.60     2.12    17.74     0  01:38        2.12
  115                  JUNCTION     0.52     1.86    17.75     0  01:38        1.86
  116                  JUNCTION     0.15     0.89    17.51     0  01:45        0.89
  117                  JUNCTION     0.43     1.75    17.50     0  01:47        1.75
  118                  JUNCTION     0.18     0.86    17.48     0  01:47        0.86
  119                  JUNCTION     0.38     1.74    17.29     0  01:50        1.74
  120                  JUNCTION     1.90     5.02    17.45     0  01:53        5.01
  121                  JUNCTION     1.90     5.02    17.49     0  01:53        5.02
  122                  JUNCTION     1.90     5.03    17.56     0  01:53        5.03
  123                  JUNCTION     1.49     4.41    17.57     0  01:53        4.41
  124                  JUNCTION     1.93     5.07    17.81     0  01:49        5.07
  125                  JUNCTION     0.71     2.28    17.94     0  01:45        2.28
  126                  JUNCTION     0.81     2.49    17.94     0  01:44        2.48
  127                  JUNCTION     0.87     2.60    17.95     0  01:44        2.59
  128                  JUNCTION     1.08     2.98    18.04     0  01:31        2.98
  129                  JUNCTION     1.15     3.14    18.00     0  01:24        3.10
  130                  JUNCTION     1.16     3.30    18.00     0  01:27        3.14
  131                  JUNCTION     1.15     3.45    18.00     0  01:27        3.23
  132                  JUNCTION     1.14     3.37    17.77     0  01:29        3.34
  133                  JUNCTION     1.26     3.70    17.68     0  01:48        3.70
  134                  JUNCTION     1.28     3.78    17.65     0  01:48        3.77
  135                  JUNCTION     1.30     3.84    17.61     0  01:48        3.84
  136                  JUNCTION     1.30     3.89    17.55     0  01:49        3.88
  137                  JUNCTION     1.31     3.94    17.50     0  01:49        3.94
  138                  JUNCTION     1.32     3.99    17.44     0  01:50        3.99
  139                  JUNCTION     1.30     3.98    17.34     0  01:53        3.98
  140                  JUNCTION     1.92     4.96    17.21     0  01:53        4.96
  141                  JUNCTION     1.89     4.89    17.08     0  01:50        4.89
  142                  JUNCTION     0.49     1.65    17.54     0  01:34        1.65
  143                  JUNCTION     0.54     2.18    17.30     0  01:53        2.18
  144                  JUNCTION     0.02     0.19    16.32     0  01:46        0.19
  145                  JUNCTION     0.55     2.00    17.39     0  01:39        2.00
  146                  JUNCTION     0.71     2.42    17.39     0  01:42        2.42
  147                  JUNCTION     0.30     1.90    18.00     0  01:32        1.35
  148                  JUNCTION     0.61     2.33    17.27     0  01:43        2.33
  149                  JUNCTION     0.26     1.91    18.00     0  01:33        1.90
  150                  JUNCTION     0.49     2.19    18.00     0  01:33        2.10
  151                  JUNCTION     0.69     2.48    18.01     0  01:28        2.48
  152                  JUNCTION     0.79     2.43    18.08     0  01:45        2.43
  153                  JUNCTION     0.58     2.04    18.11     0  01:53        2.04
  154                  JUNCTION     0.85     2.41    18.12     0  01:55        2.41
  155                  JUNCTION     0.89     2.37    18.16     0  02:02        2.37
  156                  JUNCTION     0.72     1.92    18.19     0  01:59        1.92
  157                  JUNCTION     0.44     1.54    18.16     0  02:00        1.54
  158                  JUNCTION     0.47     1.65    18.15     0  01:57        1.65
  159                  JUNCTION     0.52     1.80    18.17     0  01:47        1.80
  160                  JUNCTION     0.63     2.00    18.17     0  01:47        2.00
  161                  JUNCTION     2.01     5.19    17.70     0  01:56        5.19
  162                  JUNCTION     2.05     5.26    17.65     0  01:56        5.25
  163                  JUNCTION     2.08     5.30    17.62     0  01:56        5.30
  164                  JUNCTION     2.10     5.34    17.58     0  01:56        5.34
  165                  JUNCTION     2.12     5.38    17.54     0  01:56        5.38
  166                  JUNCTION     2.14     5.41    17.48     0  01:56        5.41
  167                  JUNCTION     2.16     5.43    17.43     0  01:55        5.43
  168                  JUNCTION     2.17     5.45    17.37     0  01:55        5.45
  169                  JUNCTION     2.19     5.46    17.30     0  01:54        5.46
  170                  JUNCTION     2.20     5.47    17.23     0  01:54        5.47
  171                  JUNCTION     2.21     5.47    17.15     0  01:53        5.47
  172                  JUNCTION     2.21     5.47    17.07     0  01:53        5.47
  173                  JUNCTION     2.22     5.47    16.99     0  01:53        5.47
  174                  JUNCTION     2.23     5.45    16.89     0  01:53        5.45
  175                  JUNCTION     2.24     5.44    16.80     0  01:53        5.44
  176                  JUNCTION     2.24     5.42    16.70     0  01:54        5.42
  177                  JUNCTION     2.48     5.69    16.59     0  01:53        5.69
  178                  JUNCTION     0.85     2.90    18.14     0  01:45        2.90
  179                  JUNCTION     0.67     2.39    16.95     0  01:49        2.39
  180                  JUNCTION     0.03     0.19    15.66     0  01:53        0.19
  181                  JUNCTION     0.51     1.92    16.88     0  01:36        1.92
  182                  JUNCTION     0.64     2.30    16.71     0  01:44        2.30
  183                  JUNCTION     0.06     0.21    17.06     0  01:37        0.21
  184                  JUNCTION     0.45     1.64    16.16     0  01:44        1.64
  185                  JUNCTION     0.08     0.73    17.58     0  01:34        0.65
  186                  JUNCTION     0.54     2.27    17.43     0  01:32        2.24
  187                  JUNCTION     0.93     2.69    16.89     0  01:32        2.69
  188                  JUNCTION     1.11     3.49    17.88     0  01:28        3.24
  189                  JUNCTION     1.17     3.34    17.98     0  01:35        3.33
  190                  JUNCTION     1.07     2.93    18.11     0  01:47        2.93
  191                  JUNCTION     1.01     2.64    18.12     0  01:57        2.64
  192                  JUNCTION     0.49     1.77    18.16     0  02:10        1.77
  193                  JUNCTION     0.70     2.33    18.13     0  02:02        2.33
  194                  JUNCTION     1.15     3.23    18.11     0  01:58        3.23
  195                  JUNCTION     0.36     1.29    18.14     0  01:53        1.29
  196                  JUNCTION     0.50     1.80    18.18     0  01:45        1.80
  197                  JUNCTION     0.64     2.20    18.12     0  01:44        2.20
  198                  JUNCTION     1.34     3.65    18.08     0  01:50        3.65
  199                  JUNCTION     1.47     3.96    18.04     0  01:44        3.96
  200                  JUNCTION     0.62     2.08    18.12     0  01:43        2.08
  201                  JUNCTION     0.47     1.64    18.11     0  01:41        1.64
  202                  JUNCTION     0.35     1.36    18.16     0  01:38        1.36
  203                  JUNCTION     0.25     1.47    18.00     0  01:30        1.47
  204                  JUNCTION     0.36     1.98    18.00     0  01:25        1.79
  205                  JUNCTION     1.34     4.18    18.00     0  01:27        3.98
  206                  JUNCTION     1.12     3.94    17.48     0  01:31        3.89
  207                  JUNCTION     0.20     1.66    18.00     0  01:27        1.32
  208                  JUNCTION     0.09     1.15    18.00     0  01:28        0.88
  209                  JUNCTION     0.64     1.68    15.70     0  01:33        1.68
  210                  JUNCTION     0.25     1.14    17.53     0  01:32        1.14
  211                  JUNCTION     0.18     0.60    16.33     0  01:32        0.59
  212                  JUNCTION     0.65     2.29    15.41     0  01:33        2.29
  213                  JUNCTION     0.49     1.46    14.31     0  01:35        1.46
  214                  JUNCTION     0.04     0.25    16.44     0  01:41        0.25
  215                  JUNCTION     0.50     1.06    14.55     0  01:39        1.06
  216                  JUNCTION     0.04     0.27    17.12     0  01:35        0.27
  217                  JUNCTION     0.50     0.98    14.01     0  01:39        0.98
  218                  JUNCTION     0.50     1.02    13.62     0  01:33        1.02
  219                  JUNCTION     0.49     0.97    13.44     0  01:33        0.97
  220                  JUNCTION     0.56     1.12    12.88     0  01:33        1.12
  221                  JUNCTION     0.64     1.33    12.52     0  01:42        1.32
  222                  JUNCTION     0.38     1.19    14.91     0  01:20        1.16
  223                  JUNCTION     0.43     1.50    15.54     0  01:33        1.48
  224                  JUNCTION     0.42     1.55    15.89     0  01:35        1.55
  225                  JUNCTION     0.03     0.19    15.02     0  01:56        0.19
  226                  JUNCTION     0.03     0.19    14.49     0  01:58        0.19
  227                  JUNCTION     0.03     0.18    13.94     0  02:03        0.18
  228                  JUNCTION     0.62     1.32    12.46     0  01:43        1.32
  229                  JUNCTION     0.56     1.92    15.93     0  01:53        1.92
  230                  JUNCTION     0.48     2.81    16.34     0  01:23        1.53
  231                  JUNCTION     0.42     1.80    14.86     0  01:23        1.21
  232                  JUNCTION     0.67     1.41    12.40     0  01:45        1.41
  233                  JUNCTION     1.04     3.55    18.16     0  01:34        3.55
  234                  JUNCTION     0.69     2.81    16.78     0  01:30        2.81
  235                  JUNCTION     0.42     1.51    14.99     0  01:30        1.51
  236                  JUNCTION     0.66     1.42    12.35     0  01:46        1.42
  237                  JUNCTION     2.32     5.08    15.60     0  01:54        5.08
  238                  JUNCTION     1.92     4.12    14.48     0  01:53        4.12
  239                  JUNCTION     1.55     3.20    13.41     0  01:53        3.20
  240                  JUNCTION     1.44     2.72    12.28     0  01:47        2.72
  241                  JUNCTION     1.70     4.26    15.82     0  01:56        4.26
  242                  JUNCTION     0.08     0.26    16.44     0  01:30        0.26
  243                  JUNCTION     0.12     0.39    15.81     0  01:30        0.39
  244                  JUNCTION     0.00     0.00    16.65     0  00:00        0.00
  245                  JUNCTION     0.75     1.92    13.64     0  01:43        1.92
  246                  JUNCTION     1.68     4.28    15.98     0  02:00        4.28
  247                  JUNCTION     0.02     0.25    16.62     0  01:44        0.24
  248                  JUNCTION     0.85     3.59    17.07     0  01:32        3.13
  249                  JUNCTION     0.72     2.61    15.68     0  01:43        2.61
  250                  JUNCTION     1.05     3.00    14.83     0  01:43        3.00
  251                  JUNCTION     1.68     4.32    16.18     0  02:02        4.32
  252                  JUNCTION     0.16     1.47    17.84     0  01:34        1.31
  253                  JUNCTION     0.90     3.64    17.28     0  01:32        3.34
  254                  JUNCTION     1.67     4.37    16.38     0  02:02        4.37
  255                  JUNCTION     0.40     1.77    18.14     0  01:37        1.77
  256                  JUNCTION     0.93     3.79    17.69     0  01:32        3.59
  257                  JUNCTION     0.31     1.79    18.06     0  01:32        1.79
  258                  JUNCTION     1.18     3.72    15.82     0  01:45        3.72
  259                  JUNCTION     1.67     4.42    16.58     0  02:02        4.42
  260                  JUNCTION     0.22     1.68    18.01     0  01:29        1.68
  261                  JUNCTION     0.92     3.87    17.98     0  01:28        3.69
  262                  JUNCTION     0.00     0.00    16.85     0  00:00        0.00
  263                  JUNCTION     1.23     3.95    16.19     0  01:44        3.95
  264                  JUNCTION     1.67     4.47    16.78     0  02:02        4.47
  265                  JUNCTION     0.76     3.24    18.00     0  01:27        3.22
  266                  JUNCTION     0.92     3.74    18.00     0  01:32        3.64
  267                  JUNCTION     0.94     3.55    17.13     0  01:45        3.53
  268                  JUNCTION     1.27     4.15    16.52     0  01:45        4.14
  269                  JUNCTION     1.64     4.49    16.95     0  02:01        4.49
  270                  JUNCTION     1.62     4.51    17.12     0  02:00        4.51
  271                  JUNCTION     0.59     2.50    17.85     0  01:41        2.45
  272                  JUNCTION     0.16     1.53    17.80     0  01:40        1.50
  273                  JUNCTION     1.00     3.75    17.54     0  01:45        3.74
  274                  JUNCTION     1.08     3.90    17.15     0  01:47        3.85
  275                  JUNCTION     1.59     4.52    17.27     0  02:00        4.52
  276                  JUNCTION     1.53     4.48    17.39     0  01:59        4.47
  277                  JUNCTION     1.38     4.29    17.47     0  01:59        4.29
  278                  JUNCTION     1.30     4.17    17.54     0  01:59        4.17
  279                  JUNCTION     0.43     1.79    18.01     0  01:43        1.79
  280                  JUNCTION     0.46     1.96    17.98     0  01:41        1.95
  281                  JUNCTION     0.88     3.51    18.01     0  01:43        3.51
  282                  JUNCTION     0.48     2.31    18.00     0  01:38        2.31
  283                  JUNCTION     0.51     2.51    18.00     0  01:32        2.40
  284                  JUNCTION     0.13     1.46    17.99     0  01:38        1.39
  285                  JUNCTION     0.99     3.79    17.76     0  01:41        3.77
  286                  JUNCTION     0.99     3.82    17.87     0  01:37        3.78
  287                  JUNCTION     0.96     3.83    18.00     0  01:37        3.74
  288                  JUNCTION     0.94     3.70    18.00     0  01:38        3.70
  289                  JUNCTION     0.24     1.45    18.01     0  01:39        1.45
  290                  JUNCTION     0.97     3.81    18.00     0  01:35        3.80
  291                  JUNCTION     1.08     4.09    18.00     0  01:38        4.09
  292                  JUNCTION     1.11     4.22    17.90     0  01:46        4.19
  293                  JUNCTION     1.11     4.20    17.74     0  01:46        4.17
  294                  JUNCTION     0.77     3.23    18.01     0  01:47        3.23
  295                  JUNCTION     0.12     1.16    18.01     0  01:46        1.16
  296                  JUNCTION     0.82     3.36    18.03     0  01:43        3.36
  297                  JUNCTION     0.76     3.19    18.04     0  01:45        3.19
  298                  JUNCTION     0.17     1.15    18.00     0  01:32        1.15
  299                  JUNCTION     1.22     4.01    17.59     0  02:00        4.01
  300                  JUNCTION     1.13     3.84    17.62     0  01:59        3.84
  301                  JUNCTION     1.03     3.66    17.63     0  02:00        3.66
  302                  JUNCTION     0.87     3.32    17.67     0  02:00        3.32
  303                  JUNCTION     0.23     1.66    18.00     0  01:32        1.66
  304                  JUNCTION     0.49     2.42    18.07     0  01:46        2.42
  305                  JUNCTION     0.38     2.01    18.09     0  01:49        2.01
  306                  JUNCTION     0.61     2.76    18.03     0  01:53        2.76
  307                  JUNCTION     0.41     1.51    18.18     0  01:49        1.51
  308                  JUNCTION     0.62     2.22    18.15     0  01:56        2.22
  309                  JUNCTION     0.33     1.31    18.16     0  02:00        1.31
  310                  JUNCTION     0.42     1.51    18.18     0  01:47        1.51
  311                  JUNCTION     0.38     1.41    18.21     0  01:47        1.41
  312                  JUNCTION     0.27     1.27    18.12     0  01:57        1.27
  313                  JUNCTION     0.32     1.30    18.15     0  01:49        1.30
  314                  JUNCTION     0.34     1.37    18.17     0  01:47        1.37
  315                  JUNCTION     0.32     1.33    18.13     0  01:47        1.33
  316                  JUNCTION     0.36     1.46    18.13     0  01:44        1.46
  317                  JUNCTION     0.37     1.50    18.30     0  01:42        1.50
  318                  JUNCTION     0.15     1.15    18.00     0  01:34        1.10
  319                  JUNCTION     0.13     1.15    18.00     0  01:33        1.15
  320                  JUNCTION     0.16     0.93    17.78     0  01:30        0.93
  321                  JUNCTION     0.13     1.33    18.00     0  01:47        0.76
  322                  JUNCTION     0.16     1.20    18.00     0  01:46        0.83
  323                  JUNCTION     0.06     1.15    18.00     0  01:43        0.72
  324                  JUNCTION     0.15     1.03    17.83     0  01:42        0.85
  325                  JUNCTION     0.15     1.18    17.98     0  01:42        0.88
  326                  JUNCTION     0.15     1.20    18.00     0  01:41        0.90
  327                  JUNCTION     0.19     1.05    17.72     0  01:50        1.05
  328                  JUNCTION     0.19     1.07    17.74     0  01:50        1.07
  329                  JUNCTION     0.10     1.15    18.00     0  01:40        0.90
  330                  JUNCTION     0.23     1.14    17.81     0  01:50        1.14
  331                  JUNCTION     0.11     1.14    17.99     0  01:40        0.94
  332                  JUNCTION     0.17     1.02    17.82     0  01:50        1.02
  333                  JUNCTION     0.11     1.13    17.98     0  01:39        0.97
  334                  JUNCTION     0.12     1.15    18.00     0  01:39        0.98
  335                  JUNCTION     0.18     1.11    17.91     0  01:38        1.08
  336                  JUNCTION     0.22     1.15    18.00     0  01:47        1.15
  337                  JUNCTION     0.44     1.54    18.21     0  01:49        1.54
  338                  JUNCTION     0.25     1.25    18.10     0  02:06        1.25
  339                  JUNCTION     0.33     1.28    18.13     0  02:06        1.28
  340                  JUNCTION     0.37     1.33    18.18     0  02:01        1.33
  341                  JUNCTION     0.30     1.31    18.16     0  02:10        1.31
  342                  JUNCTION     0.21     1.16    18.01     0  01:39        1.16
  343                  JUNCTION     0.15     1.16    18.01     0  01:48        1.16
  344                  JUNCTION     0.05     1.15    18.00     0  02:09        1.15
  345                  JUNCTION     0.12     1.18    18.03     0  01:54        1.18
  346                  JUNCTION     0.05     1.15    18.00     0  01:45        1.15
  348                  JUNCTION     0.00     0.00    16.85     0  00:00        0.00
  349                  JUNCTION     0.11     1.16    18.01     0  01:29        1.15
  350                  JUNCTION     0.33     1.31    18.16     0  02:09        1.31
  z_0512_001_066       JUNCTION     0.00     0.00    16.85     0  00:00        0.00
  z_0512_001_068       JUNCTION     0.00     0.00    16.85     0  00:00        0.00
  z_0512_001_070       JUNCTION     0.00     0.00    16.85     0  00:00        0.00
  z_0512_001_071       JUNCTION     0.23     1.30    18.15     0  01:44        1.30
  z_0512_001_072       JUNCTION     0.01     0.11    16.96     0  01:50        0.11
  z_0512_001_073       JUNCTION     0.00     0.00    16.85     0  00:00        0.00
  z_0512_001_090       JUNCTION     0.00     0.00    16.85     0  00:00        0.00
  z_0512_001_093       JUNCTION     0.00     0.00    16.85     0  00:00        0.00
  z_0512_001_094       JUNCTION     0.00     0.00    16.85     0  00:00        0.00
  z_0512_001_095       JUNCTION     0.00     0.00    16.85     0  00:00        0.00
  z_0512_001_096       JUNCTION     0.00     0.00    16.85     0  00:00        0.00
  z_0512_001_097       JUNCTION     0.21     1.31    18.16     0  01:40        1.31
  z_0512_001_099       JUNCTION     0.00     0.00    16.85     0  00:00        0.00
  z_0512_001_100       JUNCTION     0.00     0.00    16.85     0  00:00        0.00
  z_0512_001_101       JUNCTION     0.00     0.00    16.85     0  00:00        0.00
  z_0512_001_102       JUNCTION     0.00     0.00    16.85     0  00:00        0.00
  z_0512_001_103       JUNCTION     0.00     0.00    16.85     0  00:00        0.00
  z_0512_001_104       JUNCTION     0.03     1.15    18.00     0  01:34        1.15
  z_0512_001_106       JUNCTION     0.23     1.29    18.14     0  01:46        1.29
  z_0512_001_107       JUNCTION     0.14     1.20    18.05     0  01:38        1.20
  z_0512_001_108       JUNCTION     0.08     1.15    18.00     0  01:32        1.15
  z_0512_001_109       JUNCTION     0.08     1.15    18.00     0  01:32        1.15
  z_0512_001_111       JUNCTION     0.02     0.31    17.16     0  01:45        0.31
  z_0512_001_115       JUNCTION     0.01     0.23    17.08     0  01:49        0.23
  z_0512_001_122       JUNCTION     0.05     1.15    18.00     0  01:43        0.86
  z_0512_001_123       JUNCTION     0.07     1.15    18.00     0  01:41        1.15
  347                  OUTFALL      1.05     1.74    11.13     0  01:47        1.74
  
  
  *******************
  Node Inflow Summary
  *******************
  
  -------------------------------------------------------------------------------------------------
                                  Maximum  Maximum                  Lateral       Total        Flow
                                  Lateral    Total  Time of Max      Inflow      Inflow     Balance
                                   Inflow   Inflow   Occurrence      Volume      Volume       Error
  Node                 Type           CMS      CMS  days hr:min    10^6 ltr    10^6 ltr     Percent
  -------------------------------------------------------------------------------------------------
  1                    JUNCTION     0.139    0.139     0  01:30        0.34       0.341       1.238
  2                    JUNCTION     0.133    0.562     0  01:29       0.327        1.38       1.235
  3                    JUNCTION     0.114    0.264     0  01:32        0.28        0.65       0.360
  4                    JUNCTION     0.000    0.374     0  01:30           0       0.957      -0.358
  5                    JUNCTION     0.000    0.373     0  01:30           0        0.99       0.926
  6                    JUNCTION     0.138    0.683     0  01:30       0.338        1.66      -0.443
  7                    JUNCTION     0.090    0.904     0  01:30       0.221        2.17       1.850
  8                    JUNCTION     0.000    0.687     0  01:27           0        2.07       0.062
  9                    JUNCTION     0.296    0.710     0  01:28       0.727        2.04      -0.585
  10                   JUNCTION     0.111    0.183     0  01:30       0.273        0.41       1.164
  11                   JUNCTION     0.139    0.179     0  01:30        0.34       0.518       0.398
  12                   JUNCTION     0.260    0.260     0  01:30       0.639       0.673       0.926
  13                   JUNCTION     0.161    0.257     0  01:26       0.394       0.665      -0.038
  14                   JUNCTION     0.000    0.216     0  01:26           0       0.743       0.943
  15                   JUNCTION     0.151    0.340     0  01:26        0.37        1.09      -0.100
  16                   JUNCTION     0.000    0.313     0  01:27           0        1.03       0.220
  17                   JUNCTION     0.000    0.276     0  01:27           0       0.874       0.201
  18                   JUNCTION     0.140    0.410     0  01:29       0.344        1.22      -0.016
  19                   JUNCTION     0.000    0.330     0  01:26           0        1.18       0.331
  20                   JUNCTION     0.076    0.398     0  01:26       0.187        1.36      -0.344
  21                   JUNCTION     0.132    0.133     0  01:32       0.323       0.361       2.076
  22                   JUNCTION     0.000    0.113     0  01:36           0         0.1       0.981
  23                   JUNCTION     0.000    0.102     0  01:35           0       0.154       3.597
  24                   JUNCTION     0.000    0.119     0  01:32           0      0.0688       6.505
  25                   JUNCTION     0.145    0.171     0  01:26       0.357       0.379       2.986
  26                   JUNCTION     0.189    0.189     0  01:30       0.464       0.468       0.145
  27                   JUNCTION     0.166    0.322     0  01:25       0.407       0.726       1.270
  28                   JUNCTION     0.000    0.109     0  01:17           0       0.349       0.958
  29                   JUNCTION     0.179    0.256     0  01:30       0.439       0.782       0.870
  30                   JUNCTION     0.000    0.602     0  01:27           0        1.39      -0.847
  31                   JUNCTION     0.268    0.400     0  01:30       0.658        1.08       1.083
  32                   JUNCTION     0.000    0.414     0  01:26           0        1.19      -0.517
  33                   JUNCTION     0.143    0.543     0  01:29       0.351        1.61       0.901
  34                   JUNCTION     0.000    0.575     0  01:30           0        1.73      -0.679
  35                   JUNCTION     0.000    0.573     0  01:31           0        1.85       0.111
  36                   JUNCTION     0.000    0.137     0  01:35           0       0.309      -0.349
  37                   JUNCTION     0.076    0.467     0  01:26       0.187        1.61       1.366
  38                   JUNCTION     0.144    1.198     0  01:26       0.353        5.39      -0.410
  39                   JUNCTION     0.257    0.743     0  01:42       0.632        3.44       0.144
  40                   JUNCTION     0.154    0.797     0  01:27       0.378        2.76      -0.453
  41                   JUNCTION     0.000    0.686     0  01:28           0           2       0.848
  42                   JUNCTION     0.000    0.152     0  01:39           0       0.239      -0.093
  43                   JUNCTION     0.358    0.358     0  01:30       0.879       0.953       3.264
  44                   JUNCTION     0.000    0.530     0  01:28           0        1.42       1.396
  45                   JUNCTION     0.000    1.431     0  01:30           0        4.42      -1.012
  46                   JUNCTION     0.114    0.748     0  01:26        0.28        2.33       0.875
  47                   JUNCTION     0.000    1.605     0  01:30           0        5.81      -0.101
  48                   JUNCTION     0.000    1.627     0  01:27           0        6.45       0.291
  49                   JUNCTION     0.000    0.179     0  01:35           0        0.17       0.900
  50                   JUNCTION     0.221    0.339     0  01:30       0.542       0.675       3.050
  51                   JUNCTION     0.395    0.453     0  01:30        0.97        1.05      -0.074
  52                   JUNCTION     0.000    0.346     0  01:27           0       0.863       0.841
  53                   JUNCTION     0.355    0.759     0  01:30       0.871         1.8      -0.499
  54                   JUNCTION     0.119    0.277     0  01:24       0.292       0.491       0.808
  55                   JUNCTION     0.000    0.168     0  01:25           0       0.227       0.443
  56                   JUNCTION     0.510    0.510     0  01:30        1.25        1.27       0.464
  57                   JUNCTION     0.000    2.004     0  01:34           0        8.63       0.130
  58                   JUNCTION     0.201    1.788     0  01:34       0.493        7.59      -0.065
  59                   JUNCTION     0.000    1.577     0  01:27           0        6.57      -0.371
  60                   JUNCTION     0.244    1.900     0  01:25       0.598        7.73      -0.130
  61                   JUNCTION     0.114    2.049     0  01:25        0.28        8.34      -0.072
  62                   JUNCTION     0.159    2.173     0  01:25       0.391        8.97       0.287
  63                   JUNCTION     0.141    2.172     0  01:25       0.346        9.36      -0.293
  64                   JUNCTION     0.279    2.236     0  01:24       0.684        10.1       0.008
  65                   JUNCTION     0.138    2.165     0  01:23       0.338          11       0.044
  66                   JUNCTION     0.139    2.233     0  01:24        0.34        10.7      -0.037
  67                   JUNCTION     0.114    2.290     0  01:23        0.28        11.9      -0.069
  68                   JUNCTION     0.114    2.188     0  01:23        0.28        12.2       0.011
  69                   JUNCTION     0.000    2.139     0  01:45           0        12.5      -0.009
  70                   JUNCTION     0.000    2.168     0  01:41           0        12.9      -0.023
  71                   JUNCTION     0.114    2.264     0  01:41        0.28        13.4      -0.029
  72                   JUNCTION     0.136    0.730     0  01:25       0.333        3.56      -0.445
  73                   JUNCTION     0.183    0.742     0  01:26        0.45        3.24       0.792
  74                   JUNCTION     0.000    0.690     0  01:36           0        2.79      -0.017
  75                   JUNCTION     0.000    0.739     0  01:36           0        2.78      -0.045
  76                   JUNCTION     0.000    0.916     0  01:35           0         2.8      -0.184
  77                   JUNCTION     0.136    0.880     0  01:29       0.335        2.76      -0.187
  78                   JUNCTION     0.091    0.888     0  01:34       0.224        2.35      -0.374
  79                   JUNCTION     0.000    0.770     0  01:29           0        2.01      -0.269
  80                   JUNCTION     0.000    0.796     0  01:30           0        1.91      -0.201
  81                   JUNCTION     0.000    0.115     0  01:26           0       0.131       2.966
  82                   JUNCTION     0.000    0.127     0  01:26           0       0.172       0.025
  83                   JUNCTION     0.132    0.213     0  01:30       0.325        0.48       0.138
  84                   JUNCTION     0.126    0.229     0  01:30       0.308       0.656      -0.110
  85                   JUNCTION     0.000    0.170     0  01:27           0       0.571      -0.253
  86                   JUNCTION     0.323    0.415     0  01:28       0.793        1.26       0.227
  87                   JUNCTION     0.200    0.571     0  01:29       0.492        1.73       0.563
  88                   JUNCTION     0.000    0.542     0  01:29           0        1.73       0.635
  89                   JUNCTION     0.308    0.308     0  01:30       0.755       0.766       0.507
  90                   JUNCTION     0.119    0.369     0  01:30       0.306        1.04      -0.090
  91                   JUNCTION     0.123    0.490     0  01:30       0.303        1.34       0.691
  92                   JUNCTION     0.239    0.722     0  01:30       0.587        1.89      -0.061
  93                   JUNCTION     0.312    1.399     0  01:25       0.766        6.21      -0.286
  94                   JUNCTION     0.125    2.346     0  01:42       0.307          14       0.033
  95                   JUNCTION     0.457    0.606     0  01:30        1.12        1.57      -0.260
  96                   JUNCTION     0.226    0.822     0  01:30       0.555        2.13       2.454
  97                   JUNCTION     0.000    0.193     0  01:30           0       0.513       0.449
  98                   JUNCTION     0.065    0.747     0  01:30       0.159        2.04      -0.430
  99                   JUNCTION     0.138    0.310     0  01:30       0.338       0.882       0.228
  100                  JUNCTION     0.133    0.221     0  01:30       0.327       0.581       0.124
  101                  JUNCTION     0.000    0.137     0  01:34           0       0.252      -0.568
  102                  JUNCTION     0.088    0.400     0  01:34       0.215        1.62      -0.437
  103                  JUNCTION     0.140    0.312     0  01:22       0.344       0.908       0.253
  104                  JUNCTION     0.000    0.272     0  01:23           0       0.711      -1.035
  105                  JUNCTION     0.000    0.211     0  01:25           0       0.374      -0.093
  106                  JUNCTION     0.116    0.229     0  01:26       0.284       0.584      -0.599
  107                  JUNCTION     0.000    0.190     0  01:26           0        0.14       1.263
  108                  JUNCTION     0.000    0.075     0  01:28           0      0.0939      -0.127
  109                  JUNCTION     0.270    0.404     0  01:28       0.664       0.931      -0.056
  110                  JUNCTION     0.000    0.247     0  01:29           0       0.298      -1.615
  111                  JUNCTION     0.147    0.288     0  01:31       0.361       0.942       0.817
  112                  JUNCTION     0.442    0.500     0  01:29        1.08        1.81       0.137
  113                  JUNCTION     0.076    0.309     0  01:28       0.187       0.905      -0.364
  114                  JUNCTION     0.000    0.221     0  01:28           0       0.733      -0.234
  115                  JUNCTION     0.114    0.410     0  01:23        0.28        1.67      -0.060
  116                  JUNCTION     0.000    0.128     0  01:33           0       0.198      -0.254
  117                  JUNCTION     0.000    0.247     0  01:34           0       0.572      -0.968
  118                  JUNCTION     0.000    0.097     0  01:29           0       0.139       0.895
  119                  JUNCTION     0.000    0.735     0  01:32           0        2.16       2.213
  120                  JUNCTION     0.000    3.262     0  01:35           0        22.5       0.028
  121                  JUNCTION     0.000    3.425     0  01:34           0        22.5      -0.133
  122                  JUNCTION     0.000    3.287     0  01:39           0        20.5      -0.028
  123                  JUNCTION     0.159    1.438     0  01:26       0.407        6.64       0.324
  124                  JUNCTION     0.389    1.916     0  01:38       0.955        9.74       0.034
  125                  JUNCTION     0.000    0.301     0  01:23           0       0.515       1.137
  126                  JUNCTION     0.000    0.280     0  01:24           0        0.63      -0.045
  127                  JUNCTION     0.000    0.289     0  01:24           0       0.694       0.064
  128                  JUNCTION     0.754    0.754     0  01:30        1.85        2.13       0.064
  129                  JUNCTION     0.251    0.605     0  01:23       0.617        2.02       0.066
  130                  JUNCTION     0.154    0.684     0  01:24       0.378        2.19       0.012
  131                  JUNCTION     0.000    0.602     0  01:24           0        2.09       0.069
  132                  JUNCTION     0.139    0.641     0  01:27       0.342        2.38       0.173
  133                  JUNCTION     0.000    0.949     0  01:30           0        4.01      -0.486
  134                  JUNCTION     0.139    0.982     0  01:32        0.34        4.38      -0.018
  135                  JUNCTION     0.114    0.986     0  01:33        0.28        4.66       0.020
  136                  JUNCTION     0.000    0.903     0  01:34           0        4.66       0.023
  137                  JUNCTION     0.136    0.929     0  01:36       0.335           5       0.034
  138                  JUNCTION     0.212    1.047     0  01:24        0.52        5.54       0.049
  139                  JUNCTION     0.152    1.142     0  01:24       0.372        5.92       0.284
  140                  JUNCTION     0.136    4.077     0  01:24       0.333        28.8      -0.001
  141                  JUNCTION     0.221    4.649     0  01:33       0.542        31.6       0.252
  142                  JUNCTION     0.114    0.223     0  01:26        0.28       0.555       1.723
  143                  JUNCTION     0.000    0.173     0  01:36           0         0.6      -0.647
  144                  JUNCTION     0.000    0.060     0  01:41           0      0.0842       0.361
  145                  JUNCTION     0.136    0.403     0  01:27       0.333        1.78      -0.125
  146                  JUNCTION     0.000    0.311     0  01:32           0         1.1      -0.522
  147                  JUNCTION     0.114    0.238     0  01:31        0.28       0.503      -0.045
  148                  JUNCTION     0.000    0.571     0  01:33           0        2.17      -0.149
  149                  JUNCTION     0.000    0.324     0  01:32           0       0.531      -2.301
  150                  JUNCTION     0.161    0.312     0  01:31       0.396       0.777       0.202
[...]
  402                         0.01      0.01      4.17      0.01         0.01
  197                         2.05      2.05      2.09      0.01         0.06
  465                         0.01      0.01      4.57      0.01         0.01
  468                         0.31      0.31      4.50      0.01         0.01
  466                         0.37      0.37      4.52      0.01         0.01
  219                         1.18      1.18      1.23      0.01         0.01
  218                         0.53      0.53      0.71      0.02         0.01
  274                         0.49      0.49      0.58      0.01         0.01
  230                         0.96      0.96      1.42      0.07         0.06
  430                         0.88      0.88      4.49      0.01         0.01
  104                         1.30      1.30      1.57      0.01         0.01
  429                         0.74      0.74      4.61      0.01         0.01
  352                         0.69      0.69      4.60      0.01         0.01
  241                         0.93      0.93      1.16      0.01         0.01
  8                           1.12      1.12      1.26      0.04         0.06
  357                         0.54      0.54      4.57      0.01         0.01
  9                           1.18      1.18      1.22      0.11         0.12
  14                          0.94      0.94      1.17      0.01         0.01
  382                         0.75      0.75      0.93      0.01         0.01
  381                         0.25      0.25      4.53      0.01         0.01
  12                          1.30      1.30      1.46      0.05         0.03
  433                         0.64      0.64      4.57      0.01         0.01
  102                         1.80      2.09      1.81      1.45         1.11
  60                          1.54      1.54      1.64      0.04         0.05
  525                         0.01      0.01      4.37      0.01         0.01
  504                         0.08      0.08      4.37      0.01         0.01
  322                         1.50      1.50      1.56      0.01         0.01
  340                         1.01      1.01      1.06      0.24         0.23
  315                         1.68      1.68      1.70      0.01         0.01
  255                         0.55      0.55      0.73      0.01         0.01
  403                         0.01      0.01      4.32      0.01         0.01
  337                         1.46      1.46      1.62      0.01         0.01
  38                          1.79      1.90      1.79      1.03         0.77
  76                          2.11      2.11      2.12      0.12         0.14
  400                         0.01      0.01      4.21      0.01         0.01
  198                         2.00      2.00      2.05      0.01         0.01
  476                         0.53      0.53      0.80      0.01         0.01
  220                         1.12      1.12      1.18      0.01         0.01
  481                         0.38      0.38      4.47      0.01         0.01
  385                         1.06      1.06      4.50      0.01         0.01
  279                         1.10      1.10      1.15      0.02         0.01
  240                         0.93      0.93      1.12      0.01         0.01
  353                         0.77      0.77      4.60      0.01         0.01
  239                         0.93      0.93      1.08      0.01         0.01
  10                          1.08      1.08      1.18      0.04         0.01
  355                         0.75      0.76      4.51      0.02         0.01
  11                          1.07      1.07      1.29      0.01         0.01
  69                          1.37      1.37      1.54      0.01         0.01
  61                          1.40      1.40      1.54      0.16         0.15
  103                         2.05      2.05      2.09      1.13         1.05
  522                         0.10      0.10      4.34      0.01         0.01
  323                         1.46      1.46      1.50      0.01         0.01
  338                         0.97      1.00      1.01      0.39         0.31
  314                         1.66      1.66      1.68      0.01         0.01
  256                         0.56      0.56      0.77      0.01         0.01
  520                         0.14      0.14      4.50      0.01         0.01
  401                         0.01      0.01      4.50      0.01         0.01
  37                          1.90      1.93      1.90      0.87         0.74
  336                         1.43      1.48      1.46      0.32         0.19
  75                          2.09      2.09      2.11      0.06         0.07
  398                         0.01      0.01      4.21      0.01         0.01
  199                         1.94      1.94      2.00      0.01         0.01
  229                         0.98      0.98      1.12      0.01         0.01
  221                         0.63      0.63      0.82      0.01         0.01
  238                         0.91      0.91      1.08      0.01         0.02
  354                         0.77      0.77      4.56      0.01         0.01
  388                         0.83      0.83      4.58      0.01         0.01
  384                         0.88      0.88      1.14      0.01         0.01
  356                         0.76      0.76      4.61      0.01         0.01
  237                         1.13      1.13      1.29      0.01         0.01
  67                          1.27      1.27      1.37      0.01         0.01
  431                         1.16      1.16      1.61      0.01         0.01
  63                          1.91      1.91      2.05      0.06         0.08
  62                          1.87      1.87      1.98      0.01         0.01
  521                         0.14      0.14      4.37      0.01         0.01
  503                         0.19      0.19      4.32      0.01         0.01
  324                         1.39      1.39      1.46      0.01         0.02
  523                         0.10      0.10      4.56      0.01         0.01
  506                         0.11      0.11      4.31      0.01         0.01
  312                         1.64      1.64      1.66      0.01         0.01
  258                         0.59      0.59      0.76      0.01         0.01
  518                         0.23      0.23      4.55      0.01         0.01
  399                         0.01      0.01      4.55      0.01         0.01
  36                          1.93      1.96      1.93      0.71         0.63
  335                         1.47      1.63      1.48      0.93         0.68
  74                          2.07      2.07      2.09      0.09         0.08
  396                         0.01      0.01      4.22      0.01         0.01
  222                         1.88      1.88      1.94      0.01         0.01
  228                         0.75      0.75      0.97      0.02         0.01
  236                         1.13      1.13      1.27      0.01         0.01
  66                          1.45      1.45      1.80      0.01         0.01
  65                          1.40      1.40      1.82      0.01         0.01
  64                          1.78      1.80      1.91      0.18         0.12
  517                         0.24      0.24      4.42      0.01         0.01
  325                         1.35      1.35      1.39      0.06         0.03
  313                         1.62      1.62      1.64      0.01         0.01
  259                         0.59      0.59      0.79      0.01         0.01
  516                         0.24      0.24      4.59      0.01         0.01
  397                         0.01      0.01      4.59      0.01         0.01
  34                          1.95      1.95      1.96      0.45         0.44
  334                         1.48      1.48      1.63      0.01         0.01
  73                          2.06      2.06      2.07      0.03         0.04
  394                         0.01      0.01      4.23      0.01         0.01
  225                         1.82      1.82      1.88      0.01         0.01
  480                         0.01      0.01      4.47      0.01         0.01
  389                         0.83      0.83      4.53      0.01         0.01
  234                         1.21      1.21      1.45      0.01         0.01
  386                         1.00      1.00      4.61      0.01         0.01
  1                           1.41      1.41      1.64      0.17         0.19
  387                         0.92      0.92      4.51      0.01         0.01
  515                         0.30      0.30      4.43      0.01         0.01
  502                         0.25      0.25      4.39      0.01         0.01
  326                         1.32      1.32      1.35      0.01         0.02
  311                         1.60      1.60      1.62      0.01         0.01
  260                         0.61      0.61      0.80      0.01         0.01
  514                         0.30      0.30      4.61      0.01         0.01
  395                         0.01      0.01      4.61      0.01         0.01
  33                          1.89      1.89      1.95      0.05         0.05
  333                         1.42      1.42      1.48      0.05         0.05
  72                          2.04      2.04      2.06      0.01         0.03
  478                         0.40      0.63      0.74      0.30         0.06
  392                         0.01      0.01      4.23      0.01         0.01
  226                         1.76      1.76      1.82      0.01         0.01
  513                         0.34      0.34      4.44      0.01         0.01
  327                         1.29      1.29      1.32      0.01         0.01
  507                         0.24      0.24      4.37      0.01         0.01
  310                         1.58      1.58      1.60      0.01         0.01
  261                         0.61      0.61      0.81      0.01         0.01
  512                         0.34      0.34      4.63      0.01         0.01
  393                         0.01      0.01      4.63      0.01         0.01
  32                          1.76      1.76      1.89      0.01         0.01
  332                         1.32      1.32      1.42      0.01         0.01
  71                          2.02      2.02      2.04      0.01         0.03
  227                         1.58      1.58      1.76      0.01         0.01
  511                         0.33      0.33      4.44      0.01         0.01
  501                         0.33      0.33      4.43      0.01         0.01
  329                         1.27      1.27      1.29      0.01         0.01
  309                         1.56      1.56      1.58      0.09         0.09
  262                         0.62      0.62      0.82      0.01         0.01
  510                         0.33      0.33      4.62      0.01         0.01
  31                          1.71      1.71      1.76      0.01         0.01
  331                         1.17      1.17      1.32      0.01         0.01
  479                         0.01      0.01      4.30      0.01         0.01
  70                          1.99      1.99      2.02      0.03         0.03
  390                         0.01      0.01      4.27      0.01         0.01
  273                         0.03      0.03      1.33      0.01         0.01
  509                         0.34      0.34      4.45      0.01         0.01
  500                         0.33      0.33      4.43      0.01         0.01
  299                         1.23      1.23      1.27      0.02         0.01
  508                         0.30      0.30      4.40      0.01         0.01
  308                         1.55      1.55      1.56      0.07         0.03
  263                         0.66      0.66      0.83      0.01         0.01
  391                         0.01      0.01      4.59      0.01         0.01
  30                          1.65      1.65      1.71      0.01         0.01
  330                         1.04      1.04      1.17      0.01         0.01
  29                          1.93      1.93      1.99      0.05         0.03
  495                         0.38      0.38      4.46      0.01         0.01
  486                         0.36      0.36      4.43      0.01         0.01
  298                         1.22      1.39      1.23      0.30         0.07
  307                         1.53      1.53      1.55      0.06         0.03
  264                         0.70      0.80      0.86      0.19         0.01
  300                         1.21      1.21      1.65      0.01         0.01
  496                         0.38      0.38      4.56      0.01         0.01
  372                         0.38      0.38      4.37      0.01         0.01
  303                         1.87      1.87      1.93      0.01         0.01
  497                         0.44      0.44      4.56      0.01         0.01
  487                         0.39      0.39      4.53      0.01         0.01
  297                         1.33      1.38      1.39      0.31         0.23
  282                         1.51      1.51      1.53      0.01         0.01
  265                         0.75      1.04      0.84      0.50         0.18
  301                         1.10      1.10      1.21      0.01         0.01
  302                         0.79      1.20      0.83      0.80         0.30
  304                         1.82      1.82      1.87      0.02         0.02
  272                         0.63      0.63      1.32      0.01         0.01
  498                         0.63      0.63      4.70      0.01         0.01
  488                         0.41      0.41      4.59      0.01         0.01
  283                         1.47      1.47      1.51      0.01         0.01
  281                         1.47      1.50      1.50      0.17         0.06
  499                         0.63      0.63      4.58      0.01         0.01
  296                         1.03      1.18      1.15      0.23         0.04
  305                         1.77      1.77      1.82      0.01         0.01
  113                         1.47      1.48      1.50      0.18         0.11
  285                         1.44      1.44      1.47      0.01         0.01
  293                         1.75      1.75      1.77      0.33         0.16
  294                         1.08      1.08      1.16      0.01         0.01
  494                         0.63      0.63      4.58      0.01         0.01
  489                         0.46      0.46      4.47      0.01         0.01
  101                         1.45      1.47      1.48      0.22         0.13
  286                         1.36      1.36      1.44      0.01         0.01
  280                         0.99      0.99      1.10      0.01         0.01
  493                         0.51      0.51      4.40      0.01         0.01
  287                         0.90      0.90      1.08      0.01         0.01
  288                         1.06      1.29      1.21      0.30         0.03
  292                         1.71      1.73      1.75      0.21         0.11
  90                          1.44      1.49      1.48      0.24         0.15
  485                         0.44      0.44      4.41      0.01         0.01
  484                         0.50      0.50      4.41      0.01         0.01
  124                         0.81      0.85      0.88      0.06         0.01
  490                         0.57      0.57      4.38      0.01         0.01
  278                         1.28      1.28      1.36      0.01         0.01
  491                         0.65      0.65      4.39      0.01         0.01
  290                         1.68      1.68      1.73      0.06         0.07
  271                         0.84      0.84      1.14      0.01         0.01
  289                         1.47      1.58      1.50      0.25         0.08
  492                         0.72      0.72      4.57      0.01         0.01
  440                         0.85      0.85      1.03      0.01         0.01
  79                          1.40      1.40      1.49      0.01         0.01
  268                         1.24      1.24      1.28      0.01         0.01
  135                         0.87      0.87      1.05      0.01         0.01
  224                         1.51      1.57      1.58      0.34         0.24
  317                         1.23      1.23      1.34      0.03         0.01
  291                         1.62      1.62      1.68      0.01         0.01
  68                          1.36      1.36      1.40      0.04         0.03
  410                         0.57      0.57      4.39      0.01         0.01
  257                         1.21      1.35      1.24      0.36         0.16
  146                         0.83      0.83      0.93      0.01         0.01
  482                         0.87      0.87      4.54      0.01         0.01
  212                         1.54      1.67      1.57      0.35         0.17
  190                         1.15      1.15      1.34      0.03         0.03
  328                         1.57      1.57      1.62      0.01         0.01
  519                         0.81      0.81      4.43      0.01         0.01
  477                         0.83      0.83      4.43      0.01         0.01
  306                         1.15      1.15      1.23      0.01         0.01
  447                         0.83      0.83      1.08      0.01         0.01
  57                          1.33      1.33      1.36      0.19         0.13
  246                         1.31      1.31      1.35      0.19         0.18
  157                         0.94      0.94      1.13      0.01         0.01
  24                          1.05      1.10      1.15      0.17         0.10
  201                         1.45      1.45      1.67      0.01         0.01
  339                         1.55      1.55      1.57      0.01         0.01
  295                         1.10      1.10      1.15      0.05         0.01
  2                           0.90      1.06      1.02      0.22         0.05
  46                          1.28      1.32      1.33      0.48         0.41
  383                         0.66      0.66      4.46      0.01         0.01
  235                         1.29      1.39      1.31      0.62         0.44
  168                         1.01      1.02      1.09      0.12         0.09
  13                          1.27      1.27      1.45      0.03         0.01
  112                         1.48      1.60      1.55      0.28         0.15
  266                         0.90      0.90      1.03      0.01         0.01
  284                         1.08      1.08      1.10      0.07         0.01
  454                         1.02      1.02      1.20      0.01         0.01
  35                          1.21      1.21      1.32      0.40         0.37
  179                         1.16      1.16      1.39      0.05         0.06
  367                         1.10      1.10      1.27      0.03         0.01
  350                         1.07      1.07      1.27      0.01         0.01
  483                         0.85      0.85      4.47      0.01         0.01
  233                         1.26      1.26      1.60      0.01         0.03
  232                         0.96      0.96      1.09      0.06         0.02
  267                         0.92      1.01      1.03      0.16         0.02
  223                         1.04      1.26      1.08      0.48         0.20
  369                         1.10      1.10      1.21      0.02         0.03
  373                         0.95      0.95      4.66      0.01         0.01
  270                         0.98      0.98      1.26      0.01         0.01
  269                         1.10      1.10      1.26      0.22         0.23
  

  Analysis begun on:  Wed Dec 22 20:05:26 2021
  Analysis ended on:  Wed Dec 22 20:05:27 2021
  Total elapsed time: 00:00:01