
  EPA STORM WATER MANAGEMENT MODEL - VERSION 5.1 (Build 5.3.0.dev0)
  --------------------------------------------------------------

  
  *********************************************************
  NOTE: The summary statistics displayed in this report are
  based on results found at every computational time step,  
  not just on results from each reporting time step.
  *********************************************************
  
  ****************
  Analysis Options
  ****************
  Flow Units ............... CMS
  Process Models:
    Rainfall/Runoff ........ YES
    RDII ................... NO
    Snowmelt ............... NO
    Groundwater ............ NO
    Flow Routing ........... YES
    Ponding Allowed ........ YES
    Water Quality .......... NO
  Infiltration Method ...... HORTON
  Flow Routing Method ...... DYNWAVE
  Surcharge Method ......... EXTRAN
  Starting Date ............ 12/15/2017 00:00:00
  Ending Date .............. 12/15/2017 06:00:00
  Antecedent Dry Days ...... 0.0
  Report Time Step ......... 00:01:00
  Wet Time Step ............ 00:01:00
  Dry Time Step ............ 06:00:00
  Routing Time Step ........ 30.00 sec
  Variable Time Step ....... YES
  Maximum Trials ........... 8
  Number of Threads ........ 1
  Head Tolerance ........... 0.001500 m
  
  
  **************************        Volume         Depth
  Runoff Quantity Continuity     hectare-m            mm
  **************************     ---------       -------
  Total Precipitation ......        11.436        23.286
  Evaporation Loss .........         0.000         0.000
  Infiltration Loss ........         1.331         2.710
  Surface Runoff ...........         8.976        18.277
  Final Storage ............         1.130         2.300
  Continuity Error (%) .....        -0.011
  
  
  **************************        Volume        Volume
  Flow Routing Continuity        hectare-m      10^6 ltr
  **************************     ---------     ---------
  Dry Weather Inflow .......         0.000         0.000
  Wet Weather Inflow .......         8.977        89.769
  Groundwater Inflow .......         0.000         0.000
  RDII Inflow ..............         0.000         0.000
  External Inflow ..........         0.000         0.000
  External Outflow .........         8.924        89.244
  Flooding Loss ............         0.000         0.000
  Evaporation Loss .........         0.000         0.000
  Exfiltration Loss ........         0.000         0.000
  Initial Stored Volume ....         0.000         0.000
  Final Stored Volume ......         0.047         0.473
  Continuity Error (%) .....         0.058
  
  
  *************************
  Highest Continuity Errors
  *************************
  Node 302 (6.22%)
  Node 24 (6.05%)
  Node 247 (-5.76%)
  Node 227 (5.03%)
  Node 272 (-4.80%)
  
  
  ***************************
  Time-Step Critical Elements
  ***************************
  Link 26 (40.56%)
  Link 223 (9.60%)
  Link 163 (8.72%)
  Link 302 (2.05%)
  Link 365 (1.82%)
  
  
  ********************************
  Highest Flow Instability Indexes
  ********************************
  Link 343 (19)
  Link 244 (17)
  Link 31 (16)
  Link 318 (15)
  Link 316 (14)
  
  
  *************************
  Routing Time Step Summary
  *************************
  Minimum Time Step           :     0.57 sec
  Average Time Step           :    10.06 sec
  Maximum Time Step           :    30.00 sec
  Percent in Steady State     :     0.59
  Average Iterations per Step :     4.68
  Percent Not Converging      :    33.32
  
  
  ***************************
  Subcatchment Runoff Summary
  ***************************
  
  ------------------------------------------------------------------------------------------------------------------------------
                            Total      Total      Total      Total     Imperv       Perv      Total       Total     Peak  Runoff
                           Precip      Runon       Evap      Infil     Runoff     Runoff     Runoff      Runoff   Runoff   Coeff
  Subcatchment                 mm         mm         mm         mm         mm         mm         mm    10^6 ltr      CMS
  ------------------------------------------------------------------------------------------------------------------------------
  532                       23.29       0.00       0.00       2.46      17.57       1.12      18.69        0.39     0.16   0.803
  533                       23.29       0.00       0.00       2.46      17.57       1.12      18.69        0.27     0.11   0.803
  534                       23.29       0.00       0.00       2.46      17.57       1.12      18.69        0.31     0.12   0.803
  535                       23.29       0.00       0.00       2.46      17.57       1.12      18.69        0.37     0.15   0.803
  536                       23.29       0.00       0.00       2.46      17.57       1.12      18.69        0.35     0.14   0.803
  537                       23.29       0.00       0.00       2.46      17.57       1.12      18.69        0.34     0.14   0.803
  538                       23.29       0.00       0.00       2.46      17.57       1.12      18.69        0.33     0.14   0.803
  539                       23.29       0.00       0.00       2.46      17.57       1.12      18.69        0.32     0.13   0.803
  540                       23.29       0.00       0.00       2.46      17.57       1.12      18.69        0.60     0.24   0.803
  541                       23.29       0.00       0.00       2.46      17.57       1.12      18.69        0.58     0.24   0.803
  542                       23.29       0.00       0.00       2.46      17.57       1.12      18.69        0.28     0.12   0.803
  543                       23.29       0.00       0.00       2.46      17.57       1.12      18.69        0.47     0.19   0.803
  544                       23.29       0.00       0.00       2.46      17.57       1.12      18.69        1.08     0.44   0.803
  545                       23.29       0.00       0.00       2.46      17.57       1.12      18.69        0.44     0.18   0.803
  546                       23.29       0.00       0.00       2.46      17.57       1.12      18.69        0.43     0.18   0.803
  547                       23.29       0.00       0.00       2.46      17.57       1.12      18.69        0.38     0.15   0.803
  548                       23.29       0.00       0.00       2.46      17.57       1.12      18.69        0.31     0.12   0.803
  549                       23.29       0.00       0.00       2.46      17.57       1.12      18.69        0.43     0.18   0.803
  550                       23.29       0.00       0.00       2.46      17.57       1.12      18.69        0.44     0.18   0.803
  551                       23.29       0.00       0.00       2.46      17.57       1.12      18.69        0.21     0.09   0.803
  552                       23.29       0.00       0.00       2.46      17.57       1.12      18.69        0.22     0.09   0.803
  553                       23.29       0.00       0.00       2.46      17.57       1.12      18.69        0.21     0.09   0.803
  554                       23.29       0.00       0.00       2.46      17.57       1.12      18.69        0.21     0.09   0.803
  555                       23.29       0.00       0.00       2.46      17.57       1.12      18.69        0.21     0.09   0.803
  556                       23.29       0.00       0.00       2.46      17.57       1.12      18.69        0.21     0.09   0.803
  557                       23.29       0.00       0.00       2.46      17.57       1.12      18.69        0.21     0.09   0.803
  558                       23.29       0.00       0.00       2.46      17.57       1.12      18.69        0.43     0.17   0.803
  559                       23.29       0.00       0.00       2.46      17.57       1.12      18.69        0.22     0.09   0.803
  560                       23.29       0.00       0.00       2.46      17.57       1.12      18.69        0.41     0.17   0.803
  561                       23.29       0.00       0.00       2.46      17.57       1.12      18.69        0.43     0.18   0.803
  562                       23.29       0.00       0.00       2.46      17.57       1.12      18.69        0.37     0.15   0.803
  563                       23.29       0.00       0.00       2.46      17.57       1.12      18.69        0.67     0.27   0.803
  564                       23.29       0.00       0.00       2.46      17.57       1.12      18.69        0.63     0.26   0.803
  565                       23.29       0.00       0.00       2.46      17.57       1.12      18.69        0.60     0.25   0.803
  566                       23.29       0.00       0.00       2.46      17.57       1.12      18.69        0.53     0.22   0.803
  567                       23.29       0.00       0.00       2.46      17.57       1.12      18.69        0.48     0.19   0.803
  568                       23.29       0.00       0.00       2.46      17.57       1.12      18.69        0.43     0.18   0.803
  569                       23.29       0.00       0.00       2.46      17.57       1.12      18.69        0.44     0.18   0.803
  570                       23.29       0.00       0.00       2.46      17.57       1.12      18.69        0.38     0.15   0.803
  571                       23.29       0.00       0.00       2.46      17.57       1.12      18.69        0.66     0.27   0.803
  572                       23.29       0.00       0.00       2.46      17.57       1.12      18.69        0.31     0.12   0.803
  573                       23.29       0.00       0.00       2.46      17.57       1.12      18.69        0.30     0.12   0.803
  574                       23.29       0.00       0.00       2.46      17.57       1.12      18.69        0.29     0.12   0.803
  575                       23.29       0.00       0.00       2.46      17.57       1.12      18.69        0.27     0.11   0.803
  576                       23.29       0.00       0.00       2.46      17.57       1.12      18.69        0.26     0.11   0.803
  577                       23.29       0.00       0.00       2.46      17.57       1.12      18.69        0.24     0.10   0.803
  578                       23.29       0.00       0.00       2.46      17.57       1.12      18.69        0.24     0.10   0.803
  579                       23.29       0.00       0.00       2.46      17.57       1.12      18.69        0.45     0.18   0.803
  580                       23.29       0.00       0.00       2.46      17.57       1.12      18.69        0.21     0.08   0.803
  581                       23.29       0.00       0.00       2.46      17.57       1.12      18.69        0.37     0.15   0.803
  582                       23.29       0.00       0.00       2.46      17.57       1.12      18.69        0.33     0.14   0.803
  583                       23.29       0.00       0.00       2.46      17.57       1.12      18.69        0.57     0.23   0.803
  584                       23.29       0.00       0.00       2.46      17.57       1.12      18.69        0.56     0.23   0.803
  585                       23.29       0.00       0.00       2.46      17.57       1.12      18.69        0.49     0.20   0.803
  586                       23.29       0.00       0.00       2.46      17.57       1.12      18.69        0.36     0.15   0.803
  587                       23.29       0.00       0.00       2.46      17.57       1.12      18.69        0.35     0.14   0.803
  588                       23.29       0.00       0.00       2.46      17.57       1.12      18.69        0.36     0.14   0.803
  589                       23.29       0.00       0.00       2.46      17.57       1.12      18.69        0.35     0.14   0.803
  590                       23.29       0.00       0.00       2.46      17.57       1.12      18.69        0.35     0.14   0.803
  591                       23.29       0.00       0.00       2.46      17.57       1.12      18.69        0.36     0.15   0.803
  592                       23.29       0.00       0.00       2.46      17.57       1.12      18.69        0.36     0.15   0.803
  593                       23.29       0.00       0.00       2.46      17.57       1.12      18.69        0.37     0.15   0.803
  594                       23.29       0.00       0.00       2.46      17.57       1.12      18.69        0.36     0.15   0.803
  595                       23.29       0.00       0.00       2.46      17.57       1.12      18.69        0.37     0.15   0.803
  596                       23.29       0.00       0.00       2.46      17.57       1.12      18.69        0.37     0.15   0.803
  597                       23.29       0.00       0.00       2.46      17.57       1.12      18.69        0.37     0.15   0.803
  598                       23.29       0.00       0.00       2.46      17.57       1.12      18.69        0.38     0.16   0.803
  599                       23.29       0.00       0.00       2.46      17.57       1.12      18.69        0.39     0.16   0.803
  600                       23.29       0.00       0.00       2.46      17.57       1.12      18.69        0.38     0.16   0.803
  601                       23.29       0.00       0.00       2.46      17.57       1.12      18.69        0.40     0.16   0.803
  602                       23.29       0.00       0.00       2.46      17.57       1.12      18.69        0.39     0.16   0.803
  603                       23.29       0.00       0.00       2.46      17.57       1.12      18.69        0.40     0.16   0.803
  604                       23.29       0.00       0.00       2.46      17.57       1.12      18.69        0.41     0.17   0.803
  605                       23.29       0.00       0.00       2.46      17.57       1.12      18.69        0.38     0.15   0.803
  606                       23.29       0.00       0.00       2.46      17.57       1.12      18.69        0.39     0.16   0.803
  607                       23.29       0.00       0.00       2.46      17.57       1.12      18.69        0.40     0.16   0.803
  608                       23.29       0.00       0.00       2.46      17.57       1.12      18.69        0.51     0.21   0.803
  609                       23.29       0.00       0.00       2.46      17.57       1.12      18.69        0.52     0.21   0.803
  610                       23.29       0.00       0.00       2.46      17.57       1.12      18.69        0.40     0.16   0.803
  611                       23.29       0.00       0.00       2.46      17.57       1.12      18.69        0.40     0.16   0.803
  612                       23.29       0.00       0.00       2.46      17.57       1.12      18.69        0.43     0.18   0.803
  613                       23.29       0.00       0.00       2.46      17.57       1.12      18.69        0.34     0.14   0.803
  614                       23.29       0.00       0.00       2.46      17.57       1.12      18.69        0.54     0.22   0.803
  615                       23.29       0.00       0.00       2.46      17.57       1.12      18.69        0.67     0.27   0.803
  616                       23.29       0.00       0.00       2.46      17.57       1.12      18.69        0.34     0.14   0.803
  617                       23.29       0.00       0.00       2.46      17.57       1.12      18.69        0.33     0.14   0.803
  618                       23.29       0.00       0.00       2.46      17.57       1.12      18.69        0.34     0.14   0.803
  619                       23.29       0.00       0.00       2.46      17.57       1.12      18.69        0.34     0.14   0.803
  620                       23.29       0.00       0.00       2.46      17.57       1.12      18.69        0.33     0.14   0.803
  621                       23.29       0.00       0.00       2.46      17.57       1.12      18.69        0.34     0.14   0.803
  622                       23.29       0.00       0.00       2.46      17.57       1.12      18.69        0.33     0.14   0.803
  623                       23.29       0.00       0.00       2.46      17.57       1.12      18.69        0.34     0.14   0.803
  624                       23.29       0.00       0.00       2.46      17.57       1.12      18.69        0.34     0.14   0.803
  625                       23.29       0.00       0.00       2.46      17.57       1.12      18.69        0.34     0.14   0.803
  626                       23.29       0.00       0.00       2.46      17.57       1.12      18.69        0.34     0.14   0.803
  627                       23.29       0.00       0.00       2.46      17.57       1.12      18.69        0.34     0.14   0.803
  628                       23.29       0.00       0.00       2.46      17.57       1.12      18.69        0.34     0.14   0.803
  629                       23.29       0.00       0.00       2.46      17.57       1.12      18.69        0.35     0.14   0.803
  630                       23.29       0.00       0.00       2.46      17.57       1.12      18.69        0.33     0.13   0.803
  631                       23.29       0.00       0.00       2.46      17.57       1.12      18.69        0.34     0.14   0.803
  632                       23.29       0.00       0.00       2.46      17.57       1.12      18.69        0.34     0.14   0.803
  633                       23.29       0.00       0.00       2.46      17.57       1.12      18.69        0.36     0.15   0.803
  634                       23.29       0.00       0.00       2.46      17.57       1.12      18.69        0.33     0.14   0.803
  635                       23.29       0.00       0.00       2.46      17.57       1.12      18.69        0.33     0.14   0.803
  636                       23.29       0.00       0.00       2.46      17.57       1.12      18.69        0.32     0.13   0.803
  637                       23.29       0.00       0.00       2.46      17.57       1.12      18.69        0.36     0.15   0.803
  638                       23.29       0.00       0.00       2.46      17.57       1.12      18.69        0.54     0.22   0.803
  639                       23.29       0.00       0.00       2.46      17.57       1.12      18.69        0.42     0.17   0.803
  640                       23.29       0.00       0.00       2.46      17.57       1.12      18.69        0.34     0.14   0.803
  641                       23.29       0.00       0.00       2.46      17.57       1.12      18.69        0.59     0.24   0.803
  642                       23.29       0.00       0.00       2.46      17.57       1.12      18.69        0.33     0.13   0.803
  643                       23.29       0.00       0.00       2.46      17.57       1.12      18.69        0.33     0.14   0.803
  644                       23.29       0.00       0.00       2.46      17.57       1.12      18.69        0.33     0.14   0.803
  645                       23.29       0.00       0.00       2.46      17.57       1.12      18.69        0.33     0.13   0.803
  646                       23.29       0.00       0.00       2.46      17.57       1.12      18.69        0.33     0.13   0.803
  647                       23.29       0.00       0.00       2.46      17.57       1.12      18.69        0.33     0.13   0.803
  648                       23.29       0.00       0.00       2.46      17.57       1.12      18.69        0.33     0.13   0.803
  649                       23.29       0.00       0.00       2.46      17.57       1.12      18.69        0.33     0.13   0.803
  650                       23.29       0.00       0.00       2.46      17.57       1.12      18.69        0.32     0.13   0.803
  651                       23.29       0.00       0.00       2.46      17.57       1.12      18.69        0.33     0.13   0.803
  652                       23.29       0.00       0.00       2.46      17.57       1.12      18.69        0.33     0.13   0.803
  653                       23.29       0.00       0.00       2.46      17.57       1.12      18.69        0.33     0.13   0.803
  654                       23.29       0.00       0.00       2.46      17.57       1.12      18.69        0.33     0.13   0.803
  655                       23.29       0.00       0.00       2.46      17.57       1.12      18.69        0.33     0.13   0.803
  656                       23.29       0.00       0.00       2.46      17.57       1.12      18.69        0.33     0.13   0.803
  657                       23.29       0.00       0.00       2.46      17.57       1.12      18.69        0.33     0.13   0.803
  658                       23.29       0.00       0.00       2.46      17.57       1.12      18.69        0.33     0.13   0.803
  659                       23.29       0.00       0.00       2.46      17.57       1.12      18.69        0.33     0.13   0.803
  660                       23.29       0.00       0.00       2.46      17.57       1.12      18.69        0.33     0.13   0.803
  661                       23.29       0.00       0.00       2.46      17.57       1.12      18.69        0.33     0.14   0.803
  662                       23.29       0.00       0.00       2.46      17.57       1.12      18.69        0.50     0.20   0.803
  663                       23.29       0.00       0.00       2.46      17.57       1.12      18.69        0.33     0.14   0.803
  664                       23.29       0.00       0.00       2.46      17.57       1.12      18.69        1.57     0.64   0.803
  665                       23.29       0.00       0.00       2.46      17.57       1.12      18.69        1.42     0.58   0.803
  666                       23.29       0.00       0.00       2.46      17.57       1.12      18.69        1.12     0.46   0.803
  667                       23.29       0.00       0.00       2.46      17.57       1.12      18.69        0.60     0.24   0.803
  668                       23.29       0.00       0.00       2.46      17.57       1.12      18.69        0.49     0.20   0.803
  669                       23.29       0.00       0.00       2.46      17.57       1.12      18.69        0.50     0.20   0.803
  670                       23.29       0.00       0.00       2.46      17.57       1.12      18.69        0.49     0.20   0.803
  671                       23.29       0.00       0.00       2.46      17.57       1.12      18.69        0.49     0.20   0.803
  672                       23.29       0.00       0.00       2.46      17.57       1.12      18.69        0.75     0.30   0.803
  673                       23.29       0.00       0.00       2.46      17.57       1.12      18.69        0.64     0.26   0.803
  674                       23.29       0.00       0.00       2.46      17.57       1.12      18.69        0.93     0.38   0.803
  675                       23.29       0.00       0.00       2.46      17.57       1.12      18.69        0.88     0.36   0.803
  676                       23.29       0.00       0.00       2.46      17.57       1.12      18.69        0.85     0.35   0.803
  677                       23.29       0.00       0.00       2.46      17.57       1.12      18.69        0.75     0.30   0.803
  678                       23.29       0.00       0.00       2.46      17.57       1.12      18.69        0.77     0.31   0.803
  679                       23.29       0.00       0.00       2.46      17.57       1.12      18.69        0.66     0.27   0.803
  680                       23.29       0.00       0.00       2.46      17.57       1.12      18.69        0.28     0.11   0.803
  681                       23.29       0.00       0.00       2.46      17.57       1.12      18.69        0.50     0.21   0.803
  682                       23.29       0.00       0.00       2.46      17.57       1.12      18.69        0.41     0.17   0.803
  683                       23.29       0.00       0.00       2.46      17.57       1.12      18.69        0.41     0.17   0.803
  684                       23.29       0.00       0.00       2.46      17.57       1.12      18.69        0.66     0.27   0.803
  685                       23.29       0.00       0.00       2.46      17.57       1.12      18.69        0.63     0.26   0.803
  686                       23.29       0.00       0.00       2.46      17.57       1.12      18.69        0.80     0.32   0.803
  687                       23.29       0.00       0.00       9.86       4.43       2.50       6.93        1.25     0.44   0.297
  688                       23.29       0.00       0.00       2.46      17.57       1.12      18.69        0.37     0.15   0.803
  689                       23.29       0.00       0.00       2.46      17.57       1.12      18.69        0.35     0.14   0.803
  690                       23.29       0.00       0.00       2.46      17.57       1.12      18.69        0.87     0.35   0.803
  691                       23.29       0.00       0.00       2.46      17.57       1.12      18.69        1.11     0.45   0.803
  692                       23.29       0.00       0.00       2.46      17.57       1.12      18.69        0.62     0.25   0.803
  693                       23.29       0.00       0.00       2.46      17.57       1.12      18.69        0.63     0.26   0.803
  694                       23.29       0.00       0.00       2.46      17.57       1.12      18.69        1.14     0.46   0.803
  695                       23.29       0.00       0.00       2.46      17.57       1.12      18.69        0.25     0.10   0.803
  696                       23.29       0.00       0.00       2.46      17.57       1.12      18.69        0.34     0.14   0.803
  697                       23.29       0.00       0.00       2.46      17.57       1.12      18.69        0.40     0.16   0.803
  698                       23.29       0.00       0.00       2.46      17.57       1.12      18.69        0.69     0.28   0.803
  699                       23.29       0.00       0.00       2.46      17.57       1.12      18.69        0.54     0.22   0.803
  700                       23.29       0.00       0.00       2.46      17.57       1.12      18.69        0.68     0.28   0.803
  701                       23.29       0.00       0.00       2.46      17.57       1.12      18.69        0.51     0.21   0.803
  702                       23.29       0.00       0.00       2.46      17.57       1.12      18.69        0.31     0.13   0.803
  703                       23.29       0.00       0.00       2.46      17.57       1.12      18.69        0.49     0.20   0.803
  704                       23.29       0.00       0.00       2.46      17.57       1.12      18.69        0.50     0.21   0.803
  705                       23.29       0.00       0.00       2.46      17.57       1.12      18.69        0.27     0.11   0.803
  706                       23.29       0.00       0.00       2.46      17.57       1.12      18.69        0.22     0.09   0.803
  707                       23.29       0.00       0.00       2.46      17.57       1.12      18.69        0.44     0.18   0.803
  708                       23.29       0.00       0.00       2.46      17.57       1.12      18.69        0.61     0.25   0.803
  709                       23.29       0.00       0.00       2.46      17.57       1.12      18.69        0.29     0.12   0.803
  710                       23.29       0.00       0.00       2.46      17.57       1.12      18.69        0.19     0.08   0.803
  711                       23.29       0.00       0.00       2.46      17.57       1.12      18.69        0.16     0.06   0.803
  712                       23.29       0.00       0.00       2.46      17.57       1.12      18.69        0.46     0.19   0.803
  713                       23.29       0.00       0.00       2.46      17.57       1.12      18.69        0.19     0.08   0.803
  714                       23.29       0.00       0.00       2.46      17.57       1.12      18.69        0.19     0.08   0.803
  715                       23.29       0.00       0.00       2.46      17.57       1.12      18.69        0.19     0.08   0.803
  716                       23.29       0.00       0.00       2.46      17.57       1.12      18.69        0.19     0.08   0.803
  717                       23.29       0.00       0.00       2.46      17.57       1.12      18.69        0.19     0.08   0.803
  718                       23.29       0.00       0.00       2.46      17.57       1.12      18.69        0.28     0.11   0.803
  719                       23.29       0.00       0.00       2.46      17.57       1.12      18.69        0.28     0.11   0.803
  720                       23.29       0.00       0.00       2.46      17.57       1.12      18.69        0.28     0.11   0.803
  721                       23.29       0.00       0.00       2.46      17.57       1.12      18.69        0.28     0.11   0.803
  722                       23.29       0.00       0.00       2.46      17.57       1.12      18.69        0.28     0.11   0.803
  723                       23.29       0.00       0.00       2.46      17.57       1.12      18.69        0.28     0.11   0.803
  724                       23.29       0.00       0.00       2.46      17.57       1.12      18.69        0.28     0.11   0.803
  725                       23.29       0.00       0.00       2.46      17.57       1.12      18.69        0.28     0.11   0.803
  726                       23.29       0.00       0.00       2.46      17.57       1.12      18.69        0.28     0.11   0.803
  727                       23.29       0.00       0.00       2.46      17.57       1.12      18.69        0.28     0.11   0.803
  728                       23.29       0.00       0.00       2.46      17.57       1.12      18.69        0.28     0.11   0.803
  729                       23.29       0.00       0.00       2.46      17.57       1.12      18.69        0.28     0.11   0.803
  730                       23.29       0.00       0.00       2.46      17.57       1.12      18.69        0.28     0.11   0.803
  731                       23.29       0.00       0.00       2.46      17.57       1.12      18.69        0.28     0.11   0.803
  732                       23.29       0.00       0.00       2.46      17.57       1.12      18.69        0.28     0.11   0.803
  733                       23.29       0.00       0.00       2.46      17.57       1.12      18.69        0.28     0.11   0.803
  734                       23.29       0.00       0.00       2.46      17.57       1.12      18.69        0.28     0.11   0.803
  735                       23.29       0.00       0.00       2.46      17.57       1.12      18.69        0.28     0.11   0.803
  736                       23.29       0.00       0.00       2.46      17.57       1.12      18.69        0.28     0.11   0.803
  737                       23.29       0.00       0.00       2.46      17.57       1.12      18.69        0.28     0.11   0.803
  738                       23.29       0.00       0.00       2.46      17.57       1.12      18.69        0.28     0.11   0.803
  739                       23.29       0.00       0.00       2.46      17.57       1.12      18.69        0.28     0.11   0.803
  740                       23.29       0.00       0.00       2.46      17.57       1.12      18.69        0.28     0.11   0.803
  741                       23.29       0.00       0.00       2.46      17.57       1.12      18.69        0.28     0.11   0.803
  742                       23.29       0.00       0.00       2.46      17.57       1.12      18.69        0.28     0.11   0.803
  743                       23.29       0.00       0.00       2.46      17.57       1.12      18.69        0.28     0.11   0.803
  744                       23.29       0.00       0.00       2.46      17.57       1.12      18.69        0.19     0.08   0.803
  745                       23.29       0.00       0.00       0.00      17.57       2.81      20.37        0.31     0.12   0.875
  746                       23.29       0.00       0.00       0.00      17.57       2.81      20.37        0.31     0.12   0.875
  747                       23.29       0.00       0.00       0.00      17.57       2.81      20.37        0.41     0.16   0.875
  
  
  ******************
  Node Depth Summary
  ******************
  
  ---------------------------------------------------------------------------------
                                 Average  Maximum  Maximum  Time of Max    Reported
                                   Depth    Depth      HGL   Occurrence   Max Depth
  Node                 Type       Meters   Meters   Meters  days hr:min      Meters
  ---------------------------------------------------------------------------------
  1                    JUNCTION     0.48     1.42    18.27     0  01:53        1.42
  2                    JUNCTION     0.90     2.91    18.14     0  01:58        2.91
  3                    JUNCTION     0.44     1.63    18.14     0  02:00        1.63
  4                    JUNCTION     0.51     1.93    18.09     0  02:04        1.93
  5                    JUNCTION     0.52     1.98    18.09     0  02:04        1.98
  6                    JUNCTION     0.63     2.28    18.08     0  02:02        2.28
  7                    JUNCTION     0.71     2.52    18.06     0  02:00        2.52
  8                    JUNCTION     1.09     3.46    18.06     0  01:59        3.46
  9                    JUNCTION     1.06     3.39    18.07     0  01:58        3.39
  10                   JUNCTION     0.35     1.31    18.16     0  02:01        1.31
  11                   JUNCTION     0.47     1.56    18.17     0  02:00        1.56
  12                   JUNCTION     0.37     1.33    18.18     0  01:53        1.33
  13                   JUNCTION     0.47     1.61    18.18     0  01:55        1.61
  14                   JUNCTION     0.50     1.75    18.11     0  01:59        1.75
  15                   JUNCTION     0.57     2.01    18.05     0  01:57        2.01
  16                   JUNCTION     0.60     2.14    18.03     0  01:55        2.14
  17                   JUNCTION     0.63     2.28    18.02     0  01:54        2.28
  18                   JUNCTION     0.73     2.56    18.01     0  01:50        2.56
  19                   JUNCTION     0.79     2.85    17.99     0  01:43        2.84
  20                   JUNCTION     0.85     3.08    17.98     0  01:43        3.07
  21                   JUNCTION     0.22     1.16    18.01     0  01:49        1.16
  22                   JUNCTION     0.23     1.44    18.00     0  01:53        1.44
  23                   JUNCTION     0.18     1.15    18.00     0  01:53        1.15
  24                   JUNCTION     0.27     1.49    18.05     0  01:57        1.49
  25                   JUNCTION     0.30     1.26    18.11     0  02:01        1.26
  26                   JUNCTION     0.49     1.68    18.19     0  01:53        1.68
  27                   JUNCTION     0.49     1.76    18.14     0  01:58        1.76
  28                   JUNCTION     0.56     1.82    18.15     0  02:04        1.82
  29                   JUNCTION     0.72     2.28    18.12     0  01:59        2.28
  30                   JUNCTION     0.83     2.63    18.11     0  01:59        2.63
  31                   JUNCTION     0.61     2.02    18.14     0  01:55        2.02
  32                   JUNCTION     0.62     2.27    18.07     0  01:55        2.27
  33                   JUNCTION     0.66     2.44    18.03     0  01:53        2.44
  34                   JUNCTION     0.75     2.86    17.99     0  01:48        2.86
  35                   JUNCTION     0.79     2.99    17.98     0  01:47        2.99
  36                   JUNCTION     0.31     1.61    18.00     0  01:35        1.59
  37                   JUNCTION     0.89     3.22    17.97     0  01:43        3.21
  38                   JUNCTION     1.27     4.04    17.91     0  01:47        4.04
  39                   JUNCTION     1.10     3.76    17.93     0  01:47        3.75
  40                   JUNCTION     1.05     3.67    17.94     0  01:47        3.66
  41                   JUNCTION     0.87     3.24    17.97     0  01:47        3.23
  42                   JUNCTION     0.24     1.37    18.00     0  01:40        1.36
  43                   JUNCTION     0.47     1.69    18.04     0  01:50        1.69
  44                   JUNCTION     0.84     2.84    18.04     0  01:55        2.84
  45                   JUNCTION     1.38     4.03    18.02     0  01:54        4.03
  46                   JUNCTION     1.17     3.64    18.04     0  02:00        3.64
  47                   JUNCTION     1.47     4.22    18.00     0  01:55        4.21
  48                   JUNCTION     1.54     4.39    17.97     0  01:55        4.36
  49                   JUNCTION     0.34     1.80    18.00     0  01:36        1.77
  50                   JUNCTION     0.40     1.66    18.00     0  01:41        1.65
  51                   JUNCTION     0.52     1.86    18.02     0  01:48        1.86
  52                   JUNCTION     0.52     2.02    17.95     0  01:47        2.01
  53                   JUNCTION     0.68     2.61    17.91     0  01:45        2.60
  54                   JUNCTION     0.46     1.73    17.94     0  01:45        1.70
  55                   JUNCTION     0.28     1.35    17.97     0  01:45        1.33
  56                   JUNCTION     0.34     1.21    18.01     0  01:49        1.21
  57                   JUNCTION     1.83     4.91    17.85     0  01:50        4.91
  58                   JUNCTION     1.75     4.78    17.89     0  01:55        4.77
  59                   JUNCTION     1.66     4.65    17.93     0  01:55        4.62
  60                   JUNCTION     1.32     4.10    17.89     0  01:47        4.10
  61                   JUNCTION     1.34     4.15    17.87     0  01:43        4.15
  62                   JUNCTION     1.36     4.19    17.84     0  01:47        4.18
  63                   JUNCTION     1.55     4.51    17.78     0  01:50        4.51
  64                   JUNCTION     1.58     4.56    17.77     0  01:50        4.56
  65                   JUNCTION     1.63     4.64    17.73     0  01:50        4.64
  66                   JUNCTION     1.60     4.60    17.75     0  01:49        4.60
  67                   JUNCTION     1.66     4.68    17.71     0  01:50        4.68
  68                   JUNCTION     1.69     4.72    17.69     0  01:50        4.71
  69                   JUNCTION     1.71     4.75    17.65     0  01:53        4.75
  70                   JUNCTION     1.74     4.79    17.63     0  01:53        4.78
  71                   JUNCTION     1.76     4.82    17.61     0  01:50        4.82
  72                   JUNCTION     1.26     4.01    17.54     0  01:53        4.01
  73                   JUNCTION     1.07     3.64    17.64     0  01:50        3.63
  74                   JUNCTION     0.98     3.43    17.70     0  01:50        3.43
  75                   JUNCTION     0.94     3.33    17.73     0  01:49        3.33
  76                   JUNCTION     0.88     3.22    17.87     0  01:45        3.13
  77                   JUNCTION     0.84     3.09    17.87     0  01:45        3.04
  78                   JUNCTION     0.80     2.99    17.89     0  01:45        2.94
  79                   JUNCTION     0.76     2.87    17.90     0  01:45        2.83
  80                   JUNCTION     0.72     2.74    17.91     0  01:45        2.72
  81                   JUNCTION     0.25     1.33    17.95     0  01:45        1.28
  82                   JUNCTION     0.33     1.57    17.95     0  01:45        1.52
  83                   JUNCTION     0.45     1.83    17.99     0  01:45        1.74
  84                   JUNCTION     0.56     2.09    17.96     0  01:45        2.00
  85                   JUNCTION     0.61     2.22    17.89     0  01:45        2.15
  86                   JUNCTION     0.72     2.44    17.84     0  01:48        2.44
  87                   JUNCTION     0.75     2.64    17.74     0  01:47        2.63
  88                   JUNCTION     0.84     2.91    17.67     0  01:48        2.91
  89                   JUNCTION     0.30     1.24    17.69     0  01:49        1.24
  90                   JUNCTION     0.34     1.43    17.64     0  01:50        1.43
  91                   JUNCTION     0.36     1.50    17.61     0  01:50        1.50
  92                   JUNCTION     0.45     1.89    17.52     0  01:50        1.88
  93                   JUNCTION     1.45     4.32    17.51     0  01:50        4.31
  94                   JUNCTION     1.79     4.85    17.57     0  01:53        4.85
  95                   JUNCTION     0.33     1.45    17.50     0  01:50        1.45
  96                   JUNCTION     0.37     1.55    17.48     0  01:50        1.55
  97                   JUNCTION     0.16     1.00    17.50     0  01:48        0.98
  98                   JUNCTION     0.30     1.37    17.28     0  01:50        1.37
  99                   JUNCTION     0.20     1.06    17.31     0  01:50        1.06
  100                  JUNCTION     0.34     1.55    17.79     0  01:34        1.49
  101                  JUNCTION     0.25     1.50    18.00     0  01:34        1.38
  102                  JUNCTION     0.51     1.81    18.04     0  01:44        1.81
  103                  JUNCTION     0.46     1.73    18.10     0  01:45        1.73
  104                  JUNCTION     0.49     1.81    18.09     0  01:46        1.81
  105                  JUNCTION     0.42     1.62    18.12     0  01:48        1.62
  106                  JUNCTION     0.49     1.83    18.11     0  01:47        1.83
  107                  JUNCTION     0.37     1.61    18.11     0  01:54        1.61
  108                  JUNCTION     0.35     1.51    18.11     0  01:50        1.51
  109                  JUNCTION     0.54     1.95    18.12     0  01:41        1.95
  110                  JUNCTION     0.27     1.44    18.00     0  01:31        1.44
  111                  JUNCTION     0.57     2.20    18.00     0  01:33        2.20
  112                  JUNCTION     0.68     2.50    17.93     0  01:33        2.49
  113                  JUNCTION     0.57     2.11    17.93     0  01:33        2.05
  114                  JUNCTION     0.60     2.14    17.76     0  01:37        2.12
  115                  JUNCTION     0.52     1.87    17.76     0  01:37        1.86
  116                  JUNCTION     0.15     0.92    17.54     0  01:44        0.92
  117                  JUNCTION     0.44     1.79    17.54     0  01:43        1.79
  118                  JUNCTION     0.18     0.87    17.48     0  01:43        0.87
  119                  JUNCTION     0.36     1.64    17.18     0  01:53        1.63
  120                  JUNCTION     1.89     4.94    17.37     0  01:54        4.93
  121                  JUNCTION     1.89     4.94    17.41     0  01:54        4.94
  122                  JUNCTION     1.88     4.95    17.48     0  01:53        4.95
  123                  JUNCTION     1.47     4.34    17.50     0  01:54        4.34
  124                  JUNCTION     1.91     5.04    17.78     0  01:50        5.04
  125                  JUNCTION     0.70     2.26    17.91     0  01:45        2.24
  126                  JUNCTION     0.80     2.45    17.91     0  01:45        2.44
  127                  JUNCTION     0.86     2.56    17.92     0  01:45        2.54
  128                  JUNCTION     1.07     2.98    18.04     0  01:31        2.98
  129                  JUNCTION     1.14     3.14    18.00     0  01:24        3.14
  130                  JUNCTION     1.15     3.30    18.00     0  01:24        3.10
  131                  JUNCTION     1.14     3.30    17.85     0  01:29        3.18
  132                  JUNCTION     1.13     3.35    17.75     0  01:29        3.29
  133                  JUNCTION     1.24     3.65    17.63     0  01:49        3.65
  134                  JUNCTION     1.27     3.72    17.59     0  01:50        3.72
  135                  JUNCTION     1.28     3.78    17.55     0  01:50        3.78
  136                  JUNCTION     1.29     3.83    17.49     0  01:50        3.83
  137                  JUNCTION     1.30     3.89    17.45     0  01:50        3.88
  138                  JUNCTION     1.30     3.92    17.37     0  01:50        3.91
  139                  JUNCTION     1.28     3.91    17.26     0  01:50        3.91
  140                  JUNCTION     1.90     4.89    17.13     0  01:54        4.88
  141                  JUNCTION     1.87     4.81    17.00     0  01:53        4.81
  142                  JUNCTION     0.48     1.60    17.50     0  01:42        1.60
  143                  JUNCTION     0.57     2.36    17.48     0  01:42        2.36
  144                  JUNCTION     0.03     0.28    16.40     0  01:46        0.28
  145                  JUNCTION     0.55     2.01    17.40     0  01:39        2.01
  146                  JUNCTION     0.71     2.43    17.40     0  01:42        2.43
  147                  JUNCTION     0.30     1.90    18.00     0  01:32        1.36
  148                  JUNCTION     0.61     2.33    17.28     0  01:43        2.33
  149                  JUNCTION     0.26     1.91    18.00     0  01:32        1.91
  150                  JUNCTION     0.49     2.19    18.00     0  01:33        2.09
  151                  JUNCTION     0.68     2.48    18.01     0  01:28        2.48
  152                  JUNCTION     0.78     2.43    18.08     0  01:45        2.43
  153                  JUNCTION     0.57     2.04    18.11     0  01:53        2.04
  154                  JUNCTION     0.84     2.41    18.13     0  01:55        2.41
  155                  JUNCTION     0.88     2.37    18.16     0  02:02        2.37
  156                  JUNCTION     0.71     1.92    18.19     0  02:00        1.92
  157                  JUNCTION     0.44     1.54    18.16     0  02:00        1.54
  158                  JUNCTION     0.47     1.65    18.15     0  01:57        1.65
  159                  JUNCTION     0.52     1.80    18.17     0  01:48        1.80
  160                  JUNCTION     0.62     2.00    18.17     0  01:47        2.00
  161                  JUNCTION     1.99     5.15    17.66     0  01:53        5.15
  162                  JUNCTION     2.03     5.21    17.61     0  01:53        5.21
  163                  JUNCTION     2.05     5.25    17.57     0  01:54        5.25
  164                  JUNCTION     2.08     5.29    17.53     0  01:54        5.29
  165                  JUNCTION     2.10     5.32    17.48     0  01:55        5.32
  166                  JUNCTION     2.12     5.35    17.43     0  01:55        5.35
  167                  JUNCTION     2.14     5.38    17.38     0  01:55        5.38
  168                  JUNCTION     2.15     5.39    17.31     0  01:55        5.39
  169                  JUNCTION     2.17     5.40    17.24     0  01:55        5.40
  170                  JUNCTION     2.18     5.41    17.17     0  01:55        5.41
  171                  JUNCTION     2.19     5.41    17.09     0  01:55        5.41
  172                  JUNCTION     2.19     5.40    17.00     0  01:55        5.40
  173                  JUNCTION     2.21     5.39    16.91     0  01:54        5.39
  174                  JUNCTION     2.21     5.38    16.82     0  01:55        5.38
  175                  JUNCTION     2.22     5.36    16.72     0  01:55        5.36
  176                  JUNCTION     2.23     5.34    16.62     0  01:54        5.34
  177                  JUNCTION     2.47     5.61    16.51     0  01:54        5.61
  178                  JUNCTION     0.75     2.36    17.60     0  01:31        2.36
  179                  JUNCTION     0.73     2.89    17.45     0  01:42        2.89
  180                  JUNCTION     0.03     0.31    15.78     0  01:46        0.31
  181                  JUNCTION     0.50     1.92    16.88     0  01:36        1.92
  182                  JUNCTION     0.64     2.30    16.71     0  01:44        2.30
  183                  JUNCTION     0.06     0.21    17.06     0  01:37        0.21
  184                  JUNCTION     0.44     1.65    16.16     0  01:44        1.65
  185                  JUNCTION     0.08     0.76    17.61     0  01:34        0.49
  186                  JUNCTION     0.54     2.34    17.49     0  01:31        2.14
  187                  JUNCTION     0.93     2.70    16.90     0  01:31        2.67
  188                  JUNCTION     1.11     3.46    17.86     0  01:28        3.23
  189                  JUNCTION     1.16     3.34    17.99     0  01:34        3.32
  190                  JUNCTION     1.07     2.93    18.11     0  01:47        2.93
  191                  JUNCTION     1.00     2.64    18.13     0  01:57        2.64
  192                  JUNCTION     0.49     1.77    18.16     0  02:10        1.77
  193                  JUNCTION     0.69     2.33    18.13     0  02:02        2.33
  194                  JUNCTION     1.14     3.23    18.11     0  01:57        3.23
  195                  JUNCTION     0.35     1.29    18.14     0  01:53        1.29
  196                  JUNCTION     0.50     1.80    18.18     0  01:45        1.80
  197                  JUNCTION     0.64     2.20    18.12     0  01:44        2.20
  198                  JUNCTION     1.34     3.65    18.08     0  01:50        3.65
  199                  JUNCTION     1.46     3.96    18.04     0  01:44        3.96
  200                  JUNCTION     0.61     2.08    18.12     0  01:43        2.08
  201                  JUNCTION     0.47     1.64    18.11     0  01:41        1.64
  202                  JUNCTION     0.35     1.36    18.16     0  01:38        1.36
  203                  JUNCTION     0.24     1.47    18.00     0  01:30        1.47
  204                  JUNCTION     0.36     1.98    18.00     0  01:25        1.80
  205                  JUNCTION     1.33     4.18    18.00     0  01:27        3.98
  206                  JUNCTION     1.11     3.95    17.49     0  01:29        3.89
  207                  JUNCTION     0.20     1.66    18.00     0  01:27        1.32
  208                  JUNCTION     0.09     1.15    18.00     0  01:28        0.87
  209                  JUNCTION     0.63     1.68    15.70     0  01:33        1.68
  210                  JUNCTION     0.25     1.14    17.53     0  01:32        1.14
  211                  JUNCTION     0.17     0.60    16.33     0  01:31        0.59
  212                  JUNCTION     0.65     2.29    15.41     0  01:33        2.29
  213                  JUNCTION     0.49     1.46    14.31     0  01:35        1.46
  214                  JUNCTION     0.04     0.25    16.44     0  01:41        0.25
  215                  JUNCTION     0.49     1.06    14.55     0  01:38        1.06
  216                  JUNCTION     0.04     0.27    17.12     0  01:35        0.27
  217                  JUNCTION     0.50     0.98    14.01     0  01:39        0.98
  218                  JUNCTION     0.50     1.02    13.62     0  01:33        1.01
  219                  JUNCTION     0.49     0.97    13.44     0  01:33        0.97
  220                  JUNCTION     0.56     1.12    12.88     0  01:33        1.12
  221                  JUNCTION     0.63     1.32    12.51     0  01:44        1.32
  222                  JUNCTION     0.38     1.16    14.88     0  01:32        1.16
  223                  JUNCTION     0.42     1.50    15.54     0  01:32        1.49
  224                  JUNCTION     0.42     1.55    15.89     0  01:35        1.55
  225                  JUNCTION     0.03     0.29    15.12     0  01:50        0.29
  226                  JUNCTION     0.04     0.28    14.58     0  01:55        0.28
  227                  JUNCTION     0.04     0.26    14.02     0  01:59        0.26
  228                  JUNCTION     0.62     1.31    12.45     0  01:45        1.31
  229                  JUNCTION     0.60     2.28    16.29     0  01:47        2.28
  230                  JUNCTION     0.51     4.47    18.00     0  01:23        1.82
  231                  JUNCTION     0.44     2.54    15.60     0  01:23        1.38
  232                  JUNCTION     0.66     1.40    12.39     0  01:44        1.40
  233                  JUNCTION     0.97     3.46    18.06     0  01:32        3.46
  234                  JUNCTION     0.65     2.77    16.75     0  01:30        2.77
  235                  JUNCTION     0.40     1.50    14.97     0  01:30        1.50
  236                  JUNCTION     0.65     1.41    12.33     0  01:46        1.40
  237                  JUNCTION     2.31     5.02    15.54     0  01:55        5.02
  238                  JUNCTION     1.91     4.08    14.44     0  01:54        4.07
  239                  JUNCTION     1.54     3.16    13.38     0  01:53        3.16
  240                  JUNCTION     1.43     2.70    12.26     0  01:45        2.70
  241                  JUNCTION     1.69     4.20    15.76     0  01:57        4.20
  242                  JUNCTION     0.08     0.26    16.44     0  01:30        0.26
  243                  JUNCTION     0.12     0.39    15.81     0  01:30        0.39
  244                  JUNCTION     0.00     0.00    16.65     0  00:00        0.00
  245                  JUNCTION     0.74     1.89    13.61     0  01:45        1.89
  246                  JUNCTION     1.68     4.21    15.92     0  02:00        4.21
  247                  JUNCTION     0.01     0.15    16.52     0  01:39        0.14
  248                  JUNCTION     0.81     3.35    16.83     0  01:32        3.07
  249                  JUNCTION     0.70     2.52    15.59     0  01:44        2.52
  250                  JUNCTION     1.03     2.95    14.78     0  01:44        2.94
  251                  JUNCTION     1.67     4.24    16.10     0  02:02        4.24
  252                  JUNCTION     0.15     1.45    17.82     0  01:34        0.95
  253                  JUNCTION     0.86     3.57    17.20     0  01:32        3.34
  254                  JUNCTION     1.67     4.28    16.29     0  02:03        4.28
  255                  JUNCTION     0.31     1.64    18.01     0  01:33        1.64
  256                  JUNCTION     0.88     3.70    17.61     0  01:32        3.51
  257                  JUNCTION     0.31     1.79    18.06     0  01:32        1.79
  258                  JUNCTION     1.16     3.65    15.75     0  01:44        3.65
  259                  JUNCTION     1.66     4.32    16.48     0  02:03        4.32
  260                  JUNCTION     0.19     1.68    18.01     0  01:29        1.68
  261                  JUNCTION     0.87     3.86    17.97     0  01:28        3.53
  262                  JUNCTION     0.00     0.00    16.85     0  00:00        0.00
  263                  JUNCTION     1.22     3.89    16.13     0  01:45        3.89
  264                  JUNCTION     1.65     4.36    16.67     0  02:03        4.36
  265                  JUNCTION     0.73     3.24    18.00     0  01:27        3.24
  266                  JUNCTION     0.88     3.74    18.00     0  01:28        3.55
  267                  JUNCTION     0.93     3.45    17.02     0  01:45        3.44
  268                  JUNCTION     1.25     4.08    16.45     0  01:45        4.07
  269                  JUNCTION     1.62     4.37    16.83     0  02:02        4.37
  270                  JUNCTION     1.60     4.38    17.00     0  02:02        4.38
  271                  JUNCTION     0.57     2.25    17.60     0  01:46        2.25
  272                  JUNCTION     0.14     1.36    17.63     0  01:46        1.36
  273                  JUNCTION     0.98     3.66    17.44     0  01:45        3.66
  274                  JUNCTION     1.06     4.20    17.45     0  01:41        3.84
  275                  JUNCTION     1.57     4.39    17.14     0  02:01        4.38
  276                  JUNCTION     1.51     4.35    17.25     0  02:01        4.35
  277                  JUNCTION     1.36     4.18    17.35     0  02:00        4.17
  278                  JUNCTION     1.28     4.07    17.44     0  02:00        4.06
  279                  JUNCTION     0.41     1.73    17.95     0  01:43        1.72
  280                  JUNCTION     0.44     1.86    17.88     0  01:43        1.85
  281                  JUNCTION     0.86     3.50    18.00     0  01:30        3.45
  282                  JUNCTION     0.47     2.23    17.92     0  01:44        2.23
  283                  JUNCTION     0.49     2.26    17.75     0  01:46        2.26
  284                  JUNCTION     0.11     1.15    17.69     0  01:46        1.15
  285                  JUNCTION     0.97     3.69    17.66     0  01:46        3.69
  286                  JUNCTION     0.97     3.70    17.75     0  01:45        3.69
  287                  JUNCTION     0.94     3.67    17.84     0  01:44        3.67
  288                  JUNCTION     0.92     3.70    18.00     0  01:30        3.61
  289                  JUNCTION     0.23     1.44    18.00     0  01:38        1.42
  290                  JUNCTION     0.94     3.80    18.00     0  01:36        3.77
  291                  JUNCTION     1.05     4.09    18.00     0  01:39        4.03
  292                  JUNCTION     1.09     4.16    17.84     0  01:44        4.12
  293                  JUNCTION     1.09     4.17    17.70     0  01:45        4.12
  294                  JUNCTION     0.74     3.22    18.00     0  01:34        3.20
  295                  JUNCTION     0.11     1.15    18.00     0  01:35        1.14
  296                  JUNCTION     0.80     3.33    18.00     0  01:30        3.31
  297                  JUNCTION     0.74     3.15    18.00     0  01:43        3.15
  298                  JUNCTION     0.15     1.15    18.00     0  01:33        0.86
  299                  JUNCTION     1.19     3.92    17.50     0  02:00        3.91
  300                  JUNCTION     1.11     3.77    17.54     0  02:00        3.76
  301                  JUNCTION     1.01     3.59    17.56     0  02:00        3.58
  302                  JUNCTION     0.84     3.22    17.57     0  02:00        3.22
  303                  JUNCTION     0.22     1.66    18.00     0  01:32        1.66
  304                  JUNCTION     0.47     2.36    18.02     0  01:46        2.36
  305                  JUNCTION     0.36     1.97    18.05     0  01:47        1.97
  306                  JUNCTION     0.58     2.73    18.00     0  01:42        2.73
  307                  JUNCTION     0.40     1.51    18.18     0  01:49        1.51
  308                  JUNCTION     0.60     2.22    18.15     0  01:56        2.22
  309                  JUNCTION     0.33     1.31    18.16     0  02:00        1.31
  310                  JUNCTION     0.41     1.51    18.18     0  01:47        1.51
  311                  JUNCTION     0.38     1.41    18.21     0  01:47        1.41
  312                  JUNCTION     0.26     1.27    18.12     0  01:57        1.27
  313                  JUNCTION     0.32     1.30    18.15     0  01:49        1.30
  314                  JUNCTION     0.34     1.37    18.17     0  01:47        1.37
  315                  JUNCTION     0.32     1.33    18.13     0  01:47        1.33
  316                  JUNCTION     0.36     1.46    18.13     0  01:44        1.46
  317                  JUNCTION     0.37     1.50    18.30     0  01:42        1.50
  318                  JUNCTION     0.15     1.15    18.00     0  01:32        1.03
  319                  JUNCTION     0.13     1.15    18.00     0  01:33        0.93
  320                  JUNCTION     0.16     0.93    17.78     0  01:30        0.93
  321                  JUNCTION     0.12     0.85    17.52     0  01:48        0.63
  322                  JUNCTION     0.15     1.08    17.88     0  01:47        1.05
  323                  JUNCTION     0.05     1.15    18.00     0  01:44        0.63
  324                  JUNCTION     0.14     0.99    17.79     0  01:43        0.75
  325                  JUNCTION     0.14     0.99    17.79     0  01:42        0.80
  326                  JUNCTION     0.14     1.05    17.85     0  01:42        0.82
  327                  JUNCTION     0.18     1.14    17.81     0  01:41        0.97
  328                  JUNCTION     0.18     1.00    17.67     0  01:50        0.99
  329                  JUNCTION     0.09     1.15    18.00     0  01:41        0.83
  330                  JUNCTION     0.22     1.08    17.75     0  01:47        1.07
  331                  JUNCTION     0.10     1.15    18.00     0  01:40        0.88
  332                  JUNCTION     0.16     0.97    17.77     0  01:46        0.96
  333                  JUNCTION     0.10     1.15    18.00     0  01:40        0.91
  334                  JUNCTION     0.11     1.15    18.00     0  01:40        0.93
  335                  JUNCTION     0.17     1.15    17.95     0  01:39        1.03
  336                  JUNCTION     0.21     1.15    18.00     0  01:43        1.13
  337                  JUNCTION     0.43     1.50    18.17     0  01:49        1.50
  338                  JUNCTION     0.23     1.24    18.09     0  02:05        1.24
  339                  JUNCTION     0.32     1.27    18.12     0  02:04        1.27
  340                  JUNCTION     0.36     1.32    18.17     0  02:00        1.32
  341                  JUNCTION     0.29     1.30    18.15     0  02:09        1.30
  342                  JUNCTION     0.20     1.16    18.01     0  01:39        1.16
  343                  JUNCTION     0.14     1.16    18.01     0  01:49        1.16
  344                  JUNCTION     0.04     1.15    18.00     0  02:11        1.15
  345                  JUNCTION     0.10     1.17    18.02     0  01:38        1.17
  346                  JUNCTION     0.05     1.15    18.00     0  01:44        1.15
  348                  JUNCTION     0.00     0.00    16.85     0  00:00        0.00
  349                  JUNCTION     0.11     1.16    18.01     0  01:29        1.16
  350                  JUNCTION     0.33     1.31    18.16     0  02:09        1.31
  z_0512_001_070       JUNCTION     0.00     0.00    16.85     0  00:00        0.00
  z_0512_001_090       JUNCTION     0.00     0.00    16.85     0  00:00        0.00
  z_0512_001_093       JUNCTION     0.00     0.00    16.85     0  00:00        0.00
  z_0512_001_094       JUNCTION     0.00     0.00    16.85     0  00:00        0.00
  z_0512_001_095       JUNCTION     0.00     0.00    16.85     0  00:00        0.00
  z_0512_001_096       JUNCTION     0.00     0.00    16.85     0  00:00        0.00
  z_0512_001_097       JUNCTION     0.13     1.21    18.06     0  01:36        1.21
  z_0512_001_099       JUNCTION     0.00     0.00    16.85     0  00:00        0.00
  z_0512_001_100       JUNCTION     0.00     0.00    16.85     0  00:00        0.00
  z_0512_001_101       JUNCTION     0.00     0.00    16.85     0  00:00        0.00
  z_0512_001_102       JUNCTION     0.00     0.00    16.85     0  00:00        0.00
  z_0512_001_103       JUNCTION     0.00     0.00    16.85     0  00:00        0.00
  z_0512_001_104       JUNCTION     0.02     1.15    18.00     0  01:34        0.47
  z_0512_001_107       JUNCTION     0.14     1.20    18.05     0  01:38        1.20
  z_0512_001_109       JUNCTION     0.06     1.15    18.00     0  01:32        1.15
  z_0512_001_111       JUNCTION     0.01     0.20    17.05     0  01:47        0.20
  z_0512_001_115       JUNCTION     0.01     0.25    17.10     0  01:48        0.25
  347                  OUTFALL      1.05     1.73    11.12     0  01:47        1.73
  
  
  *******************
  Node Inflow Summary
  *******************
  
  -------------------------------------------------------------------------------------------------
                                  Maximum  Maximum                  Lateral       Total        Flow
                                  Lateral    Total  Time of Max      Inflow      Inflow     Balance
                                   Inflow   Inflow   Occurrence      Volume      Volume       Error
  Node                 Type           CMS      CMS  days hr:min    10^6 ltr    10^6 ltr     Percent
  -------------------------------------------------------------------------------------------------
  1                    JUNCTION     0.139    0.139     0  01:30        0.34       0.341       1.086
  2                    JUNCTION     0.133    0.564     0  01:29       0.327        1.38       1.261
  3                    JUNCTION     0.114    0.265     0  01:32        0.28       0.649       0.207
  4                    JUNCTION     0.000    0.374     0  01:30           0       0.959      -0.340
  5                    JUNCTION     0.000    0.373     0  01:30           0       0.989       0.927
  6                    JUNCTION     0.138    0.683     0  01:30       0.338        1.66      -0.476
  7                    JUNCTION     0.090    0.904     0  01:30       0.221        2.17       1.730
  8                    JUNCTION     0.000    0.708     0  01:28           0        2.07       0.058
  9                    JUNCTION     0.296    0.723     0  01:28       0.727        2.04      -0.589
  10                   JUNCTION     0.111    0.183     0  01:30       0.273       0.409       1.160
  11                   JUNCTION     0.139    0.179     0  01:30        0.34       0.515       0.348
  12                   JUNCTION     0.260    0.260     0  01:30       0.639       0.671       0.818
  13                   JUNCTION     0.161    0.258     0  01:26       0.394       0.665      -0.249
  14                   JUNCTION     0.000    0.216     0  01:26           0       0.744       0.805
  15                   JUNCTION     0.151    0.340     0  01:26        0.37        1.09      -0.189
  16                   JUNCTION     0.000    0.313     0  01:27           0        1.03       0.137
  17                   JUNCTION     0.000    0.274     0  01:27           0       0.877       0.218
  18                   JUNCTION     0.140    0.409     0  01:29       0.344        1.22      -0.067
  19                   JUNCTION     0.000    0.330     0  01:26           0        1.18       0.341
  20                   JUNCTION     0.076    0.398     0  01:26       0.187        1.37      -0.366
  21                   JUNCTION     0.132    0.132     0  01:32       0.323       0.359       1.881
  22                   JUNCTION     0.000    0.104     0  01:36           0      0.0993       0.201
  23                   JUNCTION     0.000    0.102     0  01:35           0       0.154       2.570
  24                   JUNCTION     0.000    0.119     0  01:32           0      0.0659       6.439
  25                   JUNCTION     0.145    0.171     0  01:26       0.357       0.379       3.015
  26                   JUNCTION     0.189    0.189     0  01:30       0.464       0.469       0.159
  27                   JUNCTION     0.166    0.321     0  01:25       0.408       0.725       1.154
  28                   JUNCTION     0.000    0.109     0  01:17           0       0.349       0.844
  29                   JUNCTION     0.179    0.256     0  01:30       0.439       0.783       0.872
  30                   JUNCTION     0.000    0.603     0  01:27           0        1.39      -0.900
  31                   JUNCTION     0.268    0.400     0  01:30       0.658        1.08       1.025
  32                   JUNCTION     0.000    0.414     0  01:26           0        1.19      -0.570
  33                   JUNCTION     0.143    0.543     0  01:29       0.351        1.61       0.882
  34                   JUNCTION     0.000    0.564     0  01:30           0        1.74      -0.641
  35                   JUNCTION     0.000    0.580     0  01:31           0        1.85       0.102
  36                   JUNCTION     0.000    0.132     0  01:35           0        0.31       0.028
  37                   JUNCTION     0.076    0.467     0  01:26       0.187        1.62       1.344
  38                   JUNCTION     0.144    1.197     0  01:26       0.353         5.4      -0.373
  39                   JUNCTION     0.257    0.748     0  01:42       0.632        3.45       0.126
  40                   JUNCTION     0.154    0.806     0  01:27       0.378        2.76      -0.504
  41                   JUNCTION     0.000    0.690     0  01:28           0           2       0.815
  42                   JUNCTION     0.000    0.150     0  01:39           0       0.239      -0.128
  43                   JUNCTION     0.358    0.358     0  01:30       0.879       0.952       3.174
  44                   JUNCTION     0.000    0.530     0  01:28           0        1.42       1.375
  45                   JUNCTION     0.000    1.433     0  01:30           0        4.43      -1.019
  46                   JUNCTION     0.114    0.748     0  01:26        0.28        2.33       0.765
  47                   JUNCTION     0.000    1.606     0  01:30           0        5.81      -0.104
  48                   JUNCTION     0.000    1.628     0  01:27           0        6.46       0.292
  49                   JUNCTION     0.000    0.176     0  01:36           0       0.166       0.931
  50                   JUNCTION     0.221    0.339     0  01:30       0.542       0.671       2.967
  51                   JUNCTION     0.395    0.453     0  01:30        0.97        1.05      -0.115
  52                   JUNCTION     0.000    0.347     0  01:27           0       0.864       0.799
  53                   JUNCTION     0.355    0.760     0  01:30       0.871        1.81      -0.496
  54                   JUNCTION     0.119    0.277     0  01:24       0.292        0.49       0.866
  55                   JUNCTION     0.000    0.168     0  01:25           0       0.227       0.625
  56                   JUNCTION     0.510    0.510     0  01:30        1.25        1.27       0.355
  57                   JUNCTION     0.000    2.028     0  01:34           0        8.64       0.128
  58                   JUNCTION     0.201    1.804     0  01:34       0.493         7.6      -0.083
  59                   JUNCTION     0.000    1.577     0  01:27           0        6.58      -0.380
  60                   JUNCTION     0.244    1.899     0  01:25       0.598        7.74      -0.171
  61                   JUNCTION     0.114    2.049     0  01:25        0.28        8.35      -0.049
  62                   JUNCTION     0.159    2.173     0  01:25       0.391        8.99       0.286
  63                   JUNCTION     0.141    2.171     0  01:25       0.346        9.37      -0.301
  64                   JUNCTION     0.279    2.236     0  01:24       0.684        10.1       0.005
  65                   JUNCTION     0.138    2.165     0  01:23       0.338          11       0.037
  66                   JUNCTION     0.139    2.233     0  01:24        0.34        10.7      -0.025
  67                   JUNCTION     0.114    2.290     0  01:23        0.28        11.9      -0.046
  68                   JUNCTION     0.114    2.188     0  01:23        0.28        12.2      -0.003
  69                   JUNCTION     0.000    2.166     0  01:41           0        12.5       0.007
  70                   JUNCTION     0.000    2.192     0  01:42           0        12.9      -0.022
  71                   JUNCTION     0.114    2.273     0  01:42        0.28        13.5      -0.019
  72                   JUNCTION     0.136    0.730     0  01:25       0.333        3.56      -0.407
  73                   JUNCTION     0.183    0.742     0  01:26        0.45        3.25       0.807
  74                   JUNCTION     0.000    0.706     0  01:36           0         2.8      -0.059
  75                   JUNCTION     0.000    0.762     0  01:36           0        2.79      -0.030
  76                   JUNCTION     0.000    0.924     0  01:35           0        2.81      -0.164
  77                   JUNCTION     0.136    0.887     0  01:34       0.335        2.77      -0.221
  78                   JUNCTION     0.091    0.892     0  01:34       0.224        2.35      -0.419
  79                   JUNCTION     0.000    0.770     0  01:29           0        2.01      -0.285
  80                   JUNCTION     0.000    0.796     0  01:30           0        1.91      -0.258
  81                   JUNCTION     0.000    0.115     0  01:26           0       0.131       2.809
  82                   JUNCTION     0.000    0.127     0  01:26           0       0.172       0.304
  83                   JUNCTION     0.132    0.213     0  01:30       0.325       0.479       0.088
  84                   JUNCTION     0.126    0.229     0  01:30       0.308       0.658      -0.159
  85                   JUNCTION     0.000    0.169     0  01:27           0       0.573      -0.298
  86                   JUNCTION     0.323    0.415     0  01:28       0.793        1.26       0.240
  87                   JUNCTION     0.200    0.572     0  01:29       0.492        1.73       0.547
  88                   JUNCTION     0.000    0.543     0  01:29           0        1.73       0.692
  89                   JUNCTION     0.308    0.308     0  01:30       0.755       0.768       0.311
  90                   JUNCTION     0.119    0.369     0  01:30       0.306        1.04      -0.106
  91                   JUNCTION     0.123    0.490     0  01:30       0.303        1.35       0.806
  92                   JUNCTION     0.239    0.723     0  01:30       0.587         1.9      -0.030
  93                   JUNCTION     0.312    1.399     0  01:25       0.766        6.23      -0.288
  94                   JUNCTION     0.125    2.352     0  01:42       0.307          14       0.044
  95                   JUNCTION     0.457    0.606     0  01:30        1.12        1.56      -0.226
  96                   JUNCTION     0.226    0.822     0  01:30       0.555        2.13       2.359
  97                   JUNCTION     0.000    0.193     0  01:30           0       0.503       0.346
  98                   JUNCTION     0.065    0.747     0  01:30       0.159        2.04      -0.419
  99                   JUNCTION     0.138    0.310     0  01:30       0.338       0.887       0.175
  100                  JUNCTION     0.133    0.221     0  01:30       0.327       0.579       0.115
  101                  JUNCTION     0.000    0.136     0  01:34           0        0.25      -0.532
  102                  JUNCTION     0.088    0.400     0  01:34       0.215        1.62      -0.405
  103                  JUNCTION     0.140    0.309     0  01:22       0.344       0.907       0.247
  104                  JUNCTION     0.000    0.271     0  01:23           0       0.711      -0.974
  105                  JUNCTION     0.000    0.225     0  01:25           0       0.374      -0.164
  106                  JUNCTION     0.116    0.229     0  01:26       0.284       0.583      -0.595
  107                  JUNCTION     0.000    0.190     0  01:26           0       0.141       1.455
  108                  JUNCTION     0.000    0.078     0  01:27           0      0.0943      -0.147
  109                  JUNCTION     0.270    0.406     0  01:28       0.664       0.931      -0.058
  110                  JUNCTION     0.000    0.246     0  01:29           0       0.298      -1.550
  111                  JUNCTION     0.147    0.291     0  01:31       0.361       0.942       0.809
  112                  JUNCTION     0.442    0.500     0  01:29        1.08        1.81       0.142
  113                  JUNCTION     0.076    0.309     0  01:28       0.187       0.904      -0.382
  114                  JUNCTION     0.000    0.221     0  01:28           0       0.732      -0.220
  115                  JUNCTION     0.114    0.409     0  01:23        0.28        1.66      -0.070
  116                  JUNCTION     0.000    0.124     0  01:33           0       0.192      -0.249
  117                  JUNCTION     0.000    0.232     0  01:31           0        0.54      -1.128
  118                  JUNCTION     0.000    0.091     0  01:29           0       0.132       0.916
  119                  JUNCTION     0.000    0.735     0  01:31           0        2.14       2.553
  120                  JUNCTION     0.000    3.345     0  01:35           0        22.6       0.026
  121                  JUNCTION     0.000    3.489     0  01:35           0        22.6      -0.130
  122                  JUNCTION     0.000    3.321     0  01:40           0        20.6      -0.035
  123                  JUNCTION     0.159    1.442     0  01:26       0.408        6.66       0.316
  124                  JUNCTION     0.389    1.875     0  01:25       0.955        9.76       0.015
  125                  JUNCTION     0.000    0.301     0  01:23           0       0.511       1.155
  126                  JUNCTION     0.000    0.276     0  01:24           0       0.618      -0.084
  127                  JUNCTION     0.000    0.286     0  01:31           0       0.692       0.023
  128                  JUNCTION     0.754    0.754     0  01:30        1.85        2.12       0.087
  129                  JUNCTION     0.251    0.612     0  01:23       0.617        2.01       0.049
  130                  JUNCTION     0.154    0.684     0  01:24       0.378        2.19       0.018
  131                  JUNCTION     0.000    0.600     0  01:24           0        2.09       0.062
  132                  JUNCTION     0.139    0.638     0  01:27       0.342        2.38       0.186
  133                  JUNCTION     0.000    0.956     0  01:30           0        4.03      -0.489
  134                  JUNCTION     0.139    0.982     0  01:32        0.34        4.41      -0.024
  135                  JUNCTION     0.114    0.980     0  01:33        0.28        4.69       0.031
  136                  JUNCTION     0.000    0.899     0  01:35           0        4.69       0.038
  137                  JUNCTION     0.136    0.916     0  01:36       0.335        5.03       0.031
  138                  JUNCTION     0.212    1.047     0  01:24        0.52        5.57       0.043
  139                  JUNCTION     0.152    1.141     0  01:24       0.372        5.94       0.303
  140                  JUNCTION     0.136    4.076     0  01:24       0.333        28.9      -0.009
  141                  JUNCTION     0.221    4.726     0  01:34       0.542        31.6       0.249
  142                  JUNCTION     0.114    0.179     0  01:27        0.28        0.39       2.014
  143                  JUNCTION     0.000    0.167     0  01:28           0       0.509      -1.131
  144                  JUNCTION     0.000    0.105     0  01:42           0       0.119      -0.639
  145                  JUNCTION     0.136    0.403     0  01:27       0.333        1.78      -0.109
  146                  JUNCTION     0.000    0.312     0  01:32           0         1.1      -0.513
  147                  JUNCTION     0.114    0.238     0  01:31        0.28       0.504      -0.044
  148                  JUNCTION     0.000    0.600     0  01:33           0        2.17      -0.131
  149                  JUNCTION     0.000    0.328     0  01:32           0       0.532      -2.314
  150                  JUNCTION     0.161    0.312     0  01:31       0.396       0.779       0.193
  151                  JUNCTION     0.000    0.312     0  01:28           0       0.894      -0.558
  152                  JUNCTION     0.312    0.501     0  01:26       0.766        2.02       0.454
  153                  JUNCTION     0.000    0.165     0  01:26           0       0.319      -0.041
  154                  JUNCTION     0.000    0.164     0  01:26           0       0.298       0.907
  155                  JUNCTION     0.000    0.116     0  01:17           0       0.509      -0.020
  156                  JUNCTION     0.176    0.284     0  01:30       0.432       0.777       0.638
  157                  JUNCTION     0.000    0.218     0  01:31           0       0.188      -1.475
  158                  JUNCTION     0.000    0.243     0  01:30           0        0.32      -1.240
[...]
  77                          2.12      2.12      2.13      0.15         0.17
  197                         2.05      2.05      2.10      0.01         0.01
  465                         0.01      0.01      4.57      0.01         0.01
  468                         0.25      0.25      4.49      0.01         0.01
  466                         0.34      0.34      4.52      0.01         0.01
  219                         1.19      1.19      1.24      0.01         0.01
  218                         0.51      0.51      0.70      0.01         0.01
  274                         0.47      0.47      0.55      0.01         0.01
  230                         0.95      0.95      1.41      0.07         0.06
  430                         0.89      0.89      4.49      0.01         0.01
  104                         1.30      1.30      1.57      0.01         0.01
  429                         0.74      0.74      4.61      0.01         0.01
  352                         0.68      0.68      4.60      0.01         0.01
  241                         0.93      0.93      1.16      0.01         0.01
  8                           1.12      1.12      1.26      0.05         0.06
  357                         0.53      0.53      4.57      0.01         0.01
  9                           1.18      1.19      1.22      0.11         0.12
  14                          0.94      0.94      1.17      0.01         0.01
  382                         0.75      0.75      0.93      0.01         0.01
  381                         0.26      0.26      4.53      0.01         0.01
  12                          1.30      1.30      1.46      0.05         0.03
  433                         0.63      0.63      4.57      0.01         0.01
  102                         1.80      2.09      1.81      1.45         1.12
  60                          1.54      1.54      1.64      0.04         0.05
  525                         0.01      0.01      4.37      0.01         0.01
  504                         0.01      0.01      4.37      0.01         0.01
  322                         1.50      1.50      1.57      0.01         0.01
  340                         1.00      1.00      1.05      0.25         0.23
  315                         1.68      1.68      1.70      0.01         0.01
  255                         0.52      0.52      0.72      0.01         0.01
  403                         0.01      0.01      4.30      0.01         0.01
  337                         1.46      1.46      1.62      0.01         0.01
  38                          1.79      1.91      1.79      1.04         0.78
  76                          2.11      2.11      2.12      0.14         0.17
  400                         0.01      0.01      4.17      0.01         0.01
  198                         2.00      2.00      2.05      0.01         0.01
  476                         0.51      0.51      0.79      0.01         0.01
  220                         1.13      1.13      1.19      0.01         0.01
  481                         0.34      0.34      4.46      0.01         0.01
  385                         1.06      1.06      4.50      0.01         0.01
  279                         1.11      1.11      1.15      0.02         0.01
  240                         0.93      0.93      1.12      0.01         0.01
  353                         0.77      0.77      4.60      0.01         0.01
  239                         0.94      0.94      1.08      0.01         0.01
  10                          1.08      1.08      1.19      0.04         0.01
  355                         0.76      0.77      4.51      0.02         0.01
  11                          1.07      1.07      1.29      0.01         0.01
  69                          1.37      1.37      1.54      0.01         0.01
  61                          1.40      1.40      1.54      0.16         0.15
  103                         2.05      2.05      2.09      1.13         1.06
  522                         0.01      0.01      4.33      0.01         0.01
  323                         1.46      1.46      1.50      0.01         0.01
  338                         0.96      0.99      1.00      0.40         0.32
  314                         1.67      1.67      1.68      0.01         0.01
  256                         0.53      0.53      0.76      0.01         0.01
  520                         0.09      0.09      4.50      0.01         0.01
  401                         0.01      0.01      4.50      0.01         0.01
  37                          1.91      1.94      1.91      0.87         0.76
  336                         1.43      1.48      1.46      0.33         0.20
  75                          2.10      2.10      2.11      0.08         0.08
  398                         0.01      0.01      4.21      0.01         0.01
  199                         1.94      1.94      2.00      0.01         0.01
  229                         0.99      0.99      1.13      0.01         0.01
  221                         0.61      0.61      0.82      0.01         0.01
  238                         0.91      0.91      1.08      0.01         0.01
  354                         0.77      0.77      4.56      0.01         0.01
  388                         0.83      0.83      4.58      0.01         0.01
  384                         0.88      0.88      1.13      0.01         0.01
  356                         0.76      0.76      4.61      0.01         0.01
  237                         1.13      1.13      1.29      0.01         0.01
  67                          1.27      1.27      1.37      0.01         0.01
  431                         1.16      1.16      1.61      0.01         0.01
  63                          1.91      1.91      2.05      0.06         0.07
  62                          1.87      1.87      1.98      0.01         0.01
  521                         0.09      0.09      4.36      0.01         0.01
  503                         0.12      0.12      4.31      0.01         0.01
  324                         1.39      1.39      1.46      0.01         0.02
  523                         0.01      0.01      4.56      0.01         0.01
  506                         0.01      0.01      4.30      0.01         0.01
  312                         1.65      1.65      1.67      0.01         0.01
  258                         0.56      0.56      0.74      0.01         0.01
  518                         0.17      0.17      4.55      0.01         0.01
  399                         0.01      0.01      4.55      0.01         0.01
  36                          1.94      1.96      1.94      0.71         0.63
  335                         1.47      1.63      1.48      0.96         0.71
  74                          2.08      2.08      2.10      0.10         0.10
  396                         0.01      0.01      4.22      0.01         0.01
  222                         1.88      1.88      1.94      0.01         0.01
  228                         0.75      0.75      0.98      0.02         0.01
  236                         1.13      1.13      1.27      0.01         0.01
  66                          1.45      1.45      1.80      0.01         0.01
  65                          1.40      1.40      1.82      0.01         0.01
  64                          1.78      1.80      1.91      0.18         0.12
  517                         0.20      0.20      4.42      0.01         0.01
  325                         1.35      1.35      1.39      0.07         0.04
  313                         1.63      1.63      1.65      0.01         0.01
  259                         0.56      0.56      0.78      0.01         0.01
  516                         0.20      0.20      4.59      0.01         0.01
  397                         0.01      0.01      4.59      0.01         0.01
  34                          1.95      1.95      1.96      0.46         0.43
  334                         1.48      1.48      1.63      0.01         0.01
  73                          2.06      2.06      2.08      0.05         0.05
  394                         0.01      0.01      4.22      0.01         0.01
  225                         1.82      1.82      1.88      0.01         0.01
  480                         0.01      0.01      4.47      0.01         0.01
  389                         0.83      0.83      4.53      0.01         0.01
  234                         1.22      1.22      1.45      0.01         0.01
  386                         1.00      1.00      4.61      0.01         0.01
  1                           1.41      1.41      1.64      0.17         0.19
  387                         0.92      0.92      4.51      0.01         0.01
  515                         0.25      0.25      4.43      0.01         0.01
  502                         0.19      0.19      4.38      0.01         0.01
  326                         1.32      1.32      1.35      0.01         0.01
  311                         1.61      1.61      1.63      0.01         0.01
  260                         0.58      0.58      0.79      0.01         0.01
  514                         0.26      0.26      4.61      0.01         0.01
  395                         0.01      0.01      4.61      0.01         0.01
  33                          1.89      1.89      1.95      0.05         0.04
  333                         1.42      1.42      1.48      0.05         0.05
  72                          2.04      2.04      2.06      0.01         0.03
  478                         0.38      0.61      0.72      0.29         0.06
  392                         0.01      0.01      4.23      0.01         0.01
  226                         1.76      1.76      1.82      0.01         0.01
  513                         0.29      0.29      4.44      0.01         0.01
  327                         1.29      1.29      1.32      0.01         0.01
  507                         0.19      0.19      4.36      0.01         0.01
  310                         1.59      1.59      1.61      0.01         0.01
  261                         0.59      0.59      0.80      0.01         0.01
  512                         0.29      0.29      4.63      0.01         0.01
  393                         0.01      0.01      4.63      0.01         0.01
  32                          1.76      1.76      1.89      0.01         0.01
  332                         1.32      1.32      1.42      0.01         0.01
  71                          2.03      2.03      2.04      0.01         0.04
  227                         1.57      1.57      1.76      0.01         0.01
  511                         0.29      0.29      4.44      0.01         0.01
  501                         0.29      0.29      4.43      0.01         0.01
  329                         1.26      1.26      1.29      0.01         0.01
  309                         1.57      1.57      1.59      0.10         0.10
  262                         0.60      0.60      0.80      0.01         0.01
  510                         0.29      0.29      4.62      0.01         0.01
  31                          1.71      1.71      1.76      0.01         0.01
  331                         1.16      1.16      1.32      0.01         0.01
  479                         0.01      0.01      4.29      0.01         0.01
  70                          2.00      2.00      2.03      0.04         0.04
  390                         0.01      0.01      4.27      0.01         0.01
  273                         0.02      0.02      1.31      0.01         0.01
  509                         0.30      0.30      4.45      0.01         0.01
  500                         0.30      0.30      4.43      0.01         0.01
  299                         1.23      1.23      1.26      0.02         0.01
  508                         0.26      0.26      4.39      0.01         0.01
  308                         1.55      1.55      1.57      0.07         0.04
  263                         0.64      0.64      0.82      0.01         0.01
  391                         0.01      0.01      4.59      0.01         0.01
  30                          1.65      1.65      1.71      0.01         0.01
  330                         1.03      1.03      1.16      0.01         0.01
  29                          1.93      1.93      2.00      0.05         0.04
  495                         0.32      0.32      4.46      0.01         0.01
  486                         0.32      0.32      4.43      0.01         0.01
  298                         1.22      1.39      1.23      0.30         0.07
  307                         1.53      1.53      1.55      0.06         0.03
  264                         0.68      0.77      0.84      0.19         0.01
  300                         1.21      1.21      1.65      0.01         0.01
  496                         0.33      0.33      4.56      0.01         0.01
  372                         0.32      0.32      4.36      0.01         0.01
  303                         1.87      1.87      1.93      0.01         0.01
  497                         0.40      0.40      4.56      0.01         0.01
  487                         0.35      0.35      4.53      0.01         0.01
  297                         1.33      1.37      1.39      0.31         0.23
  282                         1.51      1.51      1.53      0.01         0.01
  265                         0.74      1.03      0.83      0.51         0.18
  301                         1.10      1.10      1.21      0.01         0.01
  302                         0.77      1.19      0.80      0.76         0.26
  304                         1.82      1.82      1.87      0.03         0.02
  272                         0.61      0.61      1.31      0.01         0.01
  498                         0.60      0.60      4.70      0.01         0.01
  488                         0.37      0.37      4.59      0.01         0.01
  283                         1.48      1.48      1.51      0.01         0.01
  281                         1.47      1.49      1.50      0.18         0.06
  499                         0.60      0.60      4.58      0.01         0.01
  296                         1.02      1.16      1.14      0.23         0.05
  305                         1.77      1.77      1.82      0.01         0.01
  113                         1.47      1.48      1.49      0.18         0.11
  285                         1.44      1.44      1.48      0.01         0.01
  293                         1.75      1.75      1.77      0.33         0.17
  294                         1.06      1.06      1.15      0.01         0.01
  494                         0.61      0.61      4.58      0.01         0.01
  489                         0.42      0.42      4.47      0.01         0.01
  101                         1.45      1.47      1.48      0.22         0.13
  286                         1.35      1.35      1.44      0.01         0.01
  280                         0.97      0.97      1.10      0.01         0.01
  493                         0.47      0.47      4.40      0.01         0.01
  287                         0.87      0.87      1.06      0.01         0.01
  288                         1.04      1.28      1.20      0.30         0.03
  292                         1.71      1.73      1.75      0.22         0.12
  90                          1.44      1.48      1.47      0.24         0.15
  485                         0.39      0.39      4.40      0.01         0.01
  484                         0.47      0.47      4.40      0.01         0.01
  124                         0.79      0.84      0.86      0.06         0.01
  490                         0.54      0.54      4.37      0.01         0.01
  278                         1.27      1.27      1.35      0.01         0.01
  491                         0.63      0.63      4.39      0.01         0.01
  290                         1.68      1.68      1.73      0.06         0.07
  271                         0.81      0.81      1.13      0.01         0.01
  289                         1.46      1.58      1.50      0.25         0.08
  492                         0.69      0.69      4.57      0.01         0.01
  440                         0.84      0.84      1.01      0.01         0.01
  79                          1.39      1.39      1.48      0.01         0.01
  268                         1.24      1.24      1.27      0.01         0.01
  135                         0.86      0.86      1.04      0.01         0.01
  224                         1.51      1.56      1.58      0.34         0.24
  317                         1.22      1.22      1.33      0.03         0.01
  291                         1.62      1.62      1.68      0.01         0.01
  68                          1.36      1.36      1.39      0.04         0.03
  410                         0.54      0.54      4.39      0.01         0.01
  257                         1.20      1.35      1.24      0.37         0.17
  146                         0.81      0.81      0.91      0.01         0.01
  482                         0.84      0.84      4.54      0.01         0.01
  212                         1.53      1.66      1.56      0.35         0.17
  190                         1.14      1.14      1.33      0.03         0.03
  328                         1.57      1.57      1.62      0.01         0.01
  519                         0.78      0.78      4.43      0.01         0.01
  477                         0.81      0.81      4.43      0.01         0.01
  306                         1.14      1.14      1.22      0.01         0.01
  447                         0.81      0.81      1.07      0.01         0.01
  57                          1.32      1.32      1.36      0.19         0.13
  246                         1.31      1.31      1.35      0.19         0.18
  157                         0.93      0.93      1.12      0.01         0.01
  24                          1.03      1.08      1.14      0.17         0.10
  201                         1.45      1.45      1.66      0.01         0.01
  339                         1.54      1.54      1.57      0.01         0.01
  295                         1.09      1.09      1.14      0.05         0.01
  2                           0.89      1.05      1.01      0.22         0.04
  46                          1.27      1.31      1.32      0.46         0.39
  383                         0.62      0.62      4.45      0.01         0.01
  235                         1.28      1.38      1.31      0.64         0.45
  168                         0.99      1.00      1.08      0.12         0.09
  13                          1.25      1.25      1.45      0.03         0.01
  112                         1.48      1.59      1.54      0.29         0.15
  266                         0.88      0.88      1.02      0.01         0.01
  284                         1.06      1.06      1.09      0.06         0.01
  454                         1.00      1.00      1.18      0.01         0.01
  35                          1.20      1.20      1.31      0.41         0.38
  179                         1.15      1.15      1.38      0.05         0.06
  367                         1.08      1.08      1.25      0.03         0.01
  350                         1.05      1.05      1.25      0.01         0.01
  483                         0.83      0.83      4.47      0.01         0.01
  233                         1.25      1.25      1.59      0.01         0.03
  232                         0.93      0.93      1.07      0.06         0.02
  267                         0.90      0.99      1.02      0.16         0.02
  223                         1.02      1.25      1.06      0.49         0.21
  369                         1.08      1.08      1.20      0.02         0.03
  373                         0.92      0.92      4.66      0.01         0.01
  270                         0.96      0.96      1.25      0.01         0.01
  269                         1.07      1.07      1.25      0.22         0.23
  

  Analysis begun on:  Wed Dec 22 20:05:29 2021
  Analysis ended on:  Wed Dec 22 20:05:30 2021
  Total elapsed time: 00:00:01