
  EPA STORM WATER MANAGEMENT MODEL - VERSION 5.1 (Build 5.3.0.dev0)
  --------------------------------------------------------------

  
  *********************************************************
  NOTE: The summary statistics displayed in this report are
  based on results found at every computational time step,  
  not just on results from each reporting time step.
  *********************************************************
  
  ****************
  Analysis Options
  ****************
  Flow Units ............... CMS
  Process Models:
    Rainfall/Runoff ........ YES
    RDII ................... NO
    Snowmelt ............... NO
    Groundwater ............ NO
    Flow Routing ........... YES
    Ponding Allowed ........ YES
    Water Quality .......... NO
  Infiltration Method ...... HORTON
  Flow Routing Method ...... DYNWAVE
  Surcharge Method ......... EXTRAN
  Starting Date ............ 12/15/2017 00:00:00
  Ending Date .............. 12/15/2017 06:00:00
  Antecedent Dry Days ...... 0.0
  Report Time Step ......... 00:01:00
  Wet Time Step ............ 00:01:00
  Dry Time Step ............ 06:00:00
  Routing Time Step ........ 30.00 sec
  Variable Time Step ....... YES
  Maximum Trials ........... 8
  Number of Threads ........ 1
  Head Tolerance ........... 0.001500 m
  
  
  **************************        Volume         Depth
  Runoff Quantity Continuity     hectare-m            mm
  **************************     ---------       -------
  Total Precipitation ......        11.436        23.286
  Evaporation Loss .........         0.000         0.000
  Infiltration Loss ........         1.331         2.710
  Surface Runoff ...........         8.976        18.277
  Final Storage ............         1.130         2.300
  Continuity Error (%) .....        -0.011
  
  
  **************************        Volume        Volume
  Flow Routing Continuity        hectare-m      10^6 ltr
  **************************     ---------     ---------
  Dry Weather Inflow .......         0.000         0.000
  Wet Weather Inflow .......         8.977        89.770
  Groundwater Inflow .......         0.000         0.000
  RDII Inflow ..............         0.000         0.000
  External Inflow ..........         0.000         0.000
  External Outflow .........         8.923        89.236
  Flooding Loss ............         0.000         0.000
  Evaporation Loss .........         0.000         0.000
  Exfiltration Loss ........         0.000         0.000
  Initial Stored Volume ....         0.000         0.000
  Final Stored Volume ......         0.047         0.473
  Continuity Error (%) .....         0.069
  
  
  *************************
  Highest Continuity Errors
  *************************
  Node 302 (6.45%)
  Node 227 (5.56%)
  Node 24 (5.05%)
  Node 272 (-4.82%)
  Node 43 (3.06%)
  
  
  ***************************
  Time-Step Critical Elements
  ***************************
  Link 26 (40.66%)
  Link 223 (9.69%)
  Link 163 (8.98%)
  Link 302 (1.97%)
  Link 365 (1.87%)
  
  
  ********************************
  Highest Flow Instability Indexes
  ********************************
  Link 244 (18)
  Link 343 (17)
  Link 31 (16)
  Link 318 (13)
  Link 316 (13)
  
  
  *************************
  Routing Time Step Summary
  *************************
  Minimum Time Step           :     0.50 sec
  Average Time Step           :    10.10 sec
  Maximum Time Step           :    30.00 sec
  Percent in Steady State     :     0.65
  Average Iterations per Step :     4.66
  Percent Not Converging      :    32.38
  
  
  ***************************
  Subcatchment Runoff Summary
  ***************************
  
  ------------------------------------------------------------------------------------------------------------------------------
                            Total      Total      Total      Total     Imperv       Perv      Total       Total     Peak  Runoff
                           Precip      Runon       Evap      Infil     Runoff     Runoff     Runoff      Runoff   Runoff   Coeff
  Subcatchment                 mm         mm         mm         mm         mm         mm         mm    10^6 ltr      CMS
  ------------------------------------------------------------------------------------------------------------------------------
  532                       23.29       0.00       0.00       2.46      17.57       1.12      18.69        0.39     0.16   0.803
  533                       23.29       0.00       0.00       2.46      17.57       1.12      18.69        0.27     0.11   0.803
  534                       23.29       0.00       0.00       2.46      17.57       1.12      18.69        0.31     0.12   0.803
  535                       23.29       0.00       0.00       2.46      17.57       1.12      18.69        0.37     0.15   0.803
  536                       23.29       0.00       0.00       2.46      17.57       1.12      18.69        0.35     0.14   0.803
  537                       23.29       0.00       0.00       2.46      17.57       1.12      18.69        0.34     0.14   0.803
  538                       23.29       0.00       0.00       2.46      17.57       1.12      18.69        0.33     0.14   0.803
  539                       23.29       0.00       0.00       2.46      17.57       1.12      18.69        0.32     0.13   0.803
  540                       23.29       0.00       0.00       2.46      17.57       1.12      18.69        0.60     0.24   0.803
  541                       23.29       0.00       0.00       2.46      17.57       1.12      18.69        0.58     0.24   0.803
  542                       23.29       0.00       0.00       2.46      17.57       1.12      18.69        0.28     0.12   0.803
  543                       23.29       0.00       0.00       2.46      17.57       1.12      18.69        0.47     0.19   0.803
  544                       23.29       0.00       0.00       2.46      17.57       1.12      18.69        1.08     0.44   0.803
  545                       23.29       0.00       0.00       2.46      17.57       1.12      18.69        0.44     0.18   0.803
  546                       23.29       0.00       0.00       2.46      17.57       1.12      18.69        0.43     0.18   0.803
  547                       23.29       0.00       0.00       2.46      17.57       1.12      18.69        0.38     0.15   0.803
  548                       23.29       0.00       0.00       2.46      17.57       1.12      18.69        0.31     0.12   0.803
  549                       23.29       0.00       0.00       2.46      17.57       1.12      18.69        0.43     0.18   0.803
  550                       23.29       0.00       0.00       2.46      17.57       1.12      18.69        0.44     0.18   0.803
  551                       23.29       0.00       0.00       2.46      17.57       1.12      18.69        0.21     0.09   0.803
  552                       23.29       0.00       0.00       2.46      17.57       1.12      18.69        0.22     0.09   0.803
  553                       23.29       0.00       0.00       2.46      17.57       1.12      18.69        0.21     0.09   0.803
  554                       23.29       0.00       0.00       2.46      17.57       1.12      18.69        0.21     0.09   0.803
  555                       23.29       0.00       0.00       2.46      17.57       1.12      18.69        0.21     0.09   0.803
  556                       23.29       0.00       0.00       2.46      17.57       1.12      18.69        0.21     0.09   0.803
  557                       23.29       0.00       0.00       2.46      17.57       1.12      18.69        0.21     0.09   0.803
  558                       23.29       0.00       0.00       2.46      17.57       1.12      18.69        0.43     0.17   0.803
  559                       23.29       0.00       0.00       2.46      17.57       1.12      18.69        0.22     0.09   0.803
  560                       23.29       0.00       0.00       2.46      17.57       1.12      18.69        0.41     0.17   0.803
  561                       23.29       0.00       0.00       2.46      17.57       1.12      18.69        0.43     0.18   0.803
  562                       23.29       0.00       0.00       2.46      17.57       1.12      18.69        0.37     0.15   0.803
  563                       23.29       0.00       0.00       2.46      17.57       1.12      18.69        0.67     0.27   0.803
  564                       23.29       0.00       0.00       2.46      17.57       1.12      18.69        0.63     0.26   0.803
  565                       23.29       0.00       0.00       2.46      17.57       1.12      18.69        0.60     0.25   0.803
  566                       23.29       0.00       0.00       2.46      17.57       1.12      18.69        0.53     0.22   0.803
  567                       23.29       0.00       0.00       2.46      17.57       1.12      18.69        0.48     0.19   0.803
  568                       23.29       0.00       0.00       2.46      17.57       1.12      18.69        0.43     0.18   0.803
  569                       23.29       0.00       0.00       2.46      17.57       1.12      18.69        0.44     0.18   0.803
  570                       23.29       0.00       0.00       2.46      17.57       1.12      18.69        0.38     0.15   0.803
  571                       23.29       0.00       0.00       2.46      17.57       1.12      18.69        0.66     0.27   0.803
  572                       23.29       0.00       0.00       2.46      17.57       1.12      18.69        0.31     0.12   0.803
  573                       23.29       0.00       0.00       2.46      17.57       1.12      18.69        0.30     0.12   0.803
  574                       23.29       0.00       0.00       2.46      17.57       1.12      18.69        0.29     0.12   0.803
  575                       23.29       0.00       0.00       2.46      17.57       1.12      18.69        0.27     0.11   0.803
  576                       23.29       0.00       0.00       2.46      17.57       1.12      18.69        0.26     0.11   0.803
  577                       23.29       0.00       0.00       2.46      17.57       1.12      18.69        0.24     0.10   0.803
  578                       23.29       0.00       0.00       2.46      17.57       1.12      18.69        0.24     0.10   0.803
  579                       23.29       0.00       0.00       2.46      17.57       1.12      18.69        0.45     0.18   0.803
  580                       23.29       0.00       0.00       2.46      17.57       1.12      18.69        0.21     0.08   0.803
  581                       23.29       0.00       0.00       2.46      17.57       1.12      18.69        0.37     0.15   0.803
  582                       23.29       0.00       0.00       2.46      17.57       1.12      18.69        0.33     0.14   0.803
  583                       23.29       0.00       0.00       2.46      17.57       1.12      18.69        0.57     0.23   0.803
  584                       23.29       0.00       0.00       2.46      17.57       1.12      18.69        0.56     0.23   0.803
  585                       23.29       0.00       0.00       2.46      17.57       1.12      18.69        0.49     0.20   0.803
  586                       23.29       0.00       0.00       2.46      17.57       1.12      18.69        0.36     0.15   0.803
  587                       23.29       0.00       0.00       2.46      17.57       1.12      18.69        0.35     0.14   0.803
  588                       23.29       0.00       0.00       2.46      17.57       1.12      18.69        0.36     0.14   0.803
  589                       23.29       0.00       0.00       2.46      17.57       1.12      18.69        0.35     0.14   0.803
  590                       23.29       0.00       0.00       2.46      17.57       1.12      18.69        0.35     0.14   0.803
  591                       23.29       0.00       0.00       2.46      17.57       1.12      18.69        0.36     0.15   0.803
  592                       23.29       0.00       0.00       2.46      17.57       1.12      18.69        0.36     0.15   0.803
  593                       23.29       0.00       0.00       2.46      17.57       1.12      18.69        0.37     0.15   0.803
  594                       23.29       0.00       0.00       2.46      17.57       1.12      18.69        0.36     0.15   0.803
  595                       23.29       0.00       0.00       2.46      17.57       1.12      18.69        0.37     0.15   0.803
  596                       23.29       0.00       0.00       2.46      17.57       1.12      18.69        0.37     0.15   0.803
  597                       23.29       0.00       0.00       2.46      17.57       1.12      18.69        0.37     0.15   0.803
  598                       23.29       0.00       0.00       2.46      17.57       1.12      18.69        0.38     0.16   0.803
  599                       23.29       0.00       0.00       2.46      17.57       1.12      18.69        0.39     0.16   0.803
  600                       23.29       0.00       0.00       2.46      17.57       1.12      18.69        0.38     0.16   0.803
  601                       23.29       0.00       0.00       2.46      17.57       1.12      18.69        0.40     0.16   0.803
  602                       23.29       0.00       0.00       2.46      17.57       1.12      18.69        0.39     0.16   0.803
  603                       23.29       0.00       0.00       2.46      17.57       1.12      18.69        0.40     0.16   0.803
  604                       23.29       0.00       0.00       2.46      17.57       1.12      18.69        0.41     0.17   0.803
  605                       23.29       0.00       0.00       2.46      17.57       1.12      18.69        0.38     0.15   0.803
  606                       23.29       0.00       0.00       2.46      17.57       1.12      18.69        0.39     0.16   0.803
  607                       23.29       0.00       0.00       2.46      17.57       1.12      18.69        0.40     0.16   0.803
  608                       23.29       0.00       0.00       2.46      17.57       1.12      18.69        0.51     0.21   0.803
  609                       23.29       0.00       0.00       2.46      17.57       1.12      18.69        0.52     0.21   0.803
  610                       23.29       0.00       0.00       2.46      17.57       1.12      18.69        0.40     0.16   0.803
  611                       23.29       0.00       0.00       2.46      17.57       1.12      18.69        0.40     0.16   0.803
  612                       23.29       0.00       0.00       2.46      17.57       1.12      18.69        0.43     0.18   0.803
  613                       23.29       0.00       0.00       2.46      17.57       1.12      18.69        0.34     0.14   0.803
  614                       23.29       0.00       0.00       2.46      17.57       1.12      18.69        0.54     0.22   0.803
  615                       23.29       0.00       0.00       2.46      17.57       1.12      18.69        0.67     0.27   0.803
  616                       23.29       0.00       0.00       2.46      17.57       1.12      18.69        0.34     0.14   0.803
  617                       23.29       0.00       0.00       2.46      17.57       1.12      18.69        0.33     0.14   0.803
  618                       23.29       0.00       0.00       2.46      17.57       1.12      18.69        0.34     0.14   0.803
  619                       23.29       0.00       0.00       2.46      17.57       1.12      18.69        0.34     0.14   0.803
  620                       23.29       0.00       0.00       2.46      17.57       1.12      18.69        0.33     0.14   0.803
  621                       23.29       0.00       0.00       2.46      17.57       1.12      18.69        0.34     0.14   0.803
  622                       23.29       0.00       0.00       2.46      17.57       1.12      18.69        0.33     0.14   0.803
  623                       23.29       0.00       0.00       2.46      17.57       1.12      18.69        0.34     0.14   0.803
  624                       23.29       0.00       0.00       2.46      17.57       1.12      18.69        0.34     0.14   0.803
  625                       23.29       0.00       0.00       2.46      17.57       1.12      18.69        0.34     0.14   0.803
  626                       23.29       0.00       0.00       2.46      17.57       1.12      18.69        0.34     0.14   0.803
  627                       23.29       0.00       0.00       2.46      17.57       1.12      18.69        0.34     0.14   0.803
  628                       23.29       0.00       0.00       2.46      17.57       1.12      18.69        0.34     0.14   0.803
  629                       23.29       0.00       0.00       2.46      17.57       1.12      18.69        0.35     0.14   0.803
  630                       23.29       0.00       0.00       2.46      17.57       1.12      18.69        0.33     0.13   0.803
  631                       23.29       0.00       0.00       2.46      17.57       1.12      18.69        0.34     0.14   0.803
  632                       23.29       0.00       0.00       2.46      17.57       1.12      18.69        0.34     0.14   0.803
  633                       23.29       0.00       0.00       2.46      17.57       1.12      18.69        0.36     0.15   0.803
  634                       23.29       0.00       0.00       2.46      17.57       1.12      18.69        0.33     0.14   0.803
  635                       23.29       0.00       0.00       2.46      17.57       1.12      18.69        0.33     0.14   0.803
  636                       23.29       0.00       0.00       2.46      17.57       1.12      18.69        0.32     0.13   0.803
  637                       23.29       0.00       0.00       2.46      17.57       1.12      18.69        0.36     0.15   0.803
  638                       23.29       0.00       0.00       2.46      17.57       1.12      18.69        0.54     0.22   0.803
  639                       23.29       0.00       0.00       2.46      17.57       1.12      18.69        0.42     0.17   0.803
  640                       23.29       0.00       0.00       2.46      17.57       1.12      18.69        0.34     0.14   0.803
  641                       23.29       0.00       0.00       2.46      17.57       1.12      18.69        0.59     0.24   0.803
  642                       23.29       0.00       0.00       2.46      17.57       1.12      18.69        0.33     0.13   0.803
  643                       23.29       0.00       0.00       2.46      17.57       1.12      18.69        0.33     0.14   0.803
  644                       23.29       0.00       0.00       2.46      17.57       1.12      18.69        0.33     0.14   0.803
  645                       23.29       0.00       0.00       2.46      17.57       1.12      18.69        0.33     0.13   0.803
  646                       23.29       0.00       0.00       2.46      17.57       1.12      18.69        0.33     0.13   0.803
  647                       23.29       0.00       0.00       2.46      17.57       1.12      18.69        0.33     0.13   0.803
  648                       23.29       0.00       0.00       2.46      17.57       1.12      18.69        0.33     0.13   0.803
  649                       23.29       0.00       0.00       2.46      17.57       1.12      18.69        0.33     0.13   0.803
  650                       23.29       0.00       0.00       2.46      17.57       1.12      18.69        0.32     0.13   0.803
  651                       23.29       0.00       0.00       2.46      17.57       1.12      18.69        0.33     0.13   0.803
  652                       23.29       0.00       0.00       2.46      17.57       1.12      18.69        0.33     0.13   0.803
  653                       23.29       0.00       0.00       2.46      17.57       1.12      18.69        0.33     0.13   0.803
  654                       23.29       0.00       0.00       2.46      17.57       1.12      18.69        0.33     0.13   0.803
  655                       23.29       0.00       0.00       2.46      17.57       1.12      18.69        0.33     0.13   0.803
  656                       23.29       0.00       0.00       2.46      17.57       1.12      18.69        0.33     0.13   0.803
  657                       23.29       0.00       0.00       2.46      17.57       1.12      18.69        0.33     0.13   0.803
  658                       23.29       0.00       0.00       2.46      17.57       1.12      18.69        0.33     0.13   0.803
  659                       23.29       0.00       0.00       2.46      17.57       1.12      18.69        0.33     0.13   0.803
  660                       23.29       0.00       0.00       2.46      17.57       1.12      18.69        0.33     0.13   0.803
  661                       23.29       0.00       0.00       2.46      17.57       1.12      18.69        0.33     0.14   0.803
  662                       23.29       0.00       0.00       2.46      17.57       1.12      18.69        0.50     0.20   0.803
  663                       23.29       0.00       0.00       2.46      17.57       1.12      18.69        0.33     0.14   0.803
  664                       23.29       0.00       0.00       2.46      17.57       1.12      18.69        1.57     0.64   0.803
  665                       23.29       0.00       0.00       2.46      17.57       1.12      18.69        1.42     0.58   0.803
  666                       23.29       0.00       0.00       2.46      17.57       1.12      18.69        1.12     0.46   0.803
  667                       23.29       0.00       0.00       2.46      17.57       1.12      18.69        0.60     0.24   0.803
  668                       23.29       0.00       0.00       2.46      17.57       1.12      18.69        0.49     0.20   0.803
  669                       23.29       0.00       0.00       2.46      17.57       1.12      18.69        0.50     0.20   0.803
  670                       23.29       0.00       0.00       2.46      17.57       1.12      18.69        0.49     0.20   0.803
  671                       23.29       0.00       0.00       2.46      17.57       1.12      18.69        0.49     0.20   0.803
  672                       23.29       0.00       0.00       2.46      17.57       1.12      18.69        0.75     0.30   0.803
  673                       23.29       0.00       0.00       2.46      17.57       1.12      18.69        0.64     0.26   0.803
  674                       23.29       0.00       0.00       2.46      17.57       1.12      18.69        0.93     0.38   0.803
  675                       23.29       0.00       0.00       2.46      17.57       1.12      18.69        0.88     0.36   0.803
  676                       23.29       0.00       0.00       2.46      17.57       1.12      18.69        0.85     0.35   0.803
  677                       23.29       0.00       0.00       2.46      17.57       1.12      18.69        0.75     0.30   0.803
  678                       23.29       0.00       0.00       2.46      17.57       1.12      18.69        0.77     0.31   0.803
  679                       23.29       0.00       0.00       2.46      17.57       1.12      18.69        0.66     0.27   0.803
  680                       23.29       0.00       0.00       2.46      17.57       1.12      18.69        0.28     0.11   0.803
  681                       23.29       0.00       0.00       2.46      17.57       1.12      18.69        0.50     0.21   0.803
  682                       23.29       0.00       0.00       2.46      17.57       1.12      18.69        0.41     0.17   0.803
  683                       23.29       0.00       0.00       2.46      17.57       1.12      18.69        0.41     0.17   0.803
  684                       23.29       0.00       0.00       2.46      17.57       1.12      18.69        0.66     0.27   0.803
  685                       23.29       0.00       0.00       2.46      17.57       1.12      18.69        0.63     0.26   0.803
  686                       23.29       0.00       0.00       2.46      17.57       1.12      18.69        0.80     0.32   0.803
  687                       23.29       0.00       0.00       9.86       4.43       2.50       6.93        1.25     0.44   0.297
  688                       23.29       0.00       0.00       2.46      17.57       1.12      18.69        0.37     0.15   0.803
  689                       23.29       0.00       0.00       2.46      17.57       1.12      18.69        0.35     0.14   0.803
  690                       23.29       0.00       0.00       2.46      17.57       1.12      18.69        0.87     0.35   0.803
  691                       23.29       0.00       0.00       2.46      17.57       1.12      18.69        1.11     0.45   0.803
  692                       23.29       0.00       0.00       2.46      17.57       1.12      18.69        0.62     0.25   0.803
  693                       23.29       0.00       0.00       2.46      17.57       1.12      18.69        0.63     0.26   0.803
  694                       23.29       0.00       0.00       2.46      17.57       1.12      18.69        1.14     0.46   0.803
  695                       23.29       0.00       0.00       2.46      17.57       1.12      18.69        0.25     0.10   0.803
  696                       23.29       0.00       0.00       2.46      17.57       1.12      18.69        0.34     0.14   0.803
  697                       23.29       0.00       0.00       2.46      17.57       1.12      18.69        0.40     0.16   0.803
  698                       23.29       0.00       0.00       2.46      17.57       1.12      18.69        0.69     0.28   0.803
  699                       23.29       0.00       0.00       2.46      17.57       1.12      18.69        0.54     0.22   0.803
  700                       23.29       0.00       0.00       2.46      17.57       1.12      18.69        0.68     0.28   0.803
  701                       23.29       0.00       0.00       2.46      17.57       1.12      18.69        0.51     0.21   0.803
  702                       23.29       0.00       0.00       2.46      17.57       1.12      18.69        0.31     0.13   0.803
  703                       23.29       0.00       0.00       2.46      17.57       1.12      18.69        0.49     0.20   0.803
  704                       23.29       0.00       0.00       2.46      17.57       1.12      18.69        0.50     0.21   0.803
  705                       23.29       0.00       0.00       2.46      17.57       1.12      18.69        0.27     0.11   0.803
  706                       23.29       0.00       0.00       2.46      17.57       1.12      18.69        0.22     0.09   0.803
  707                       23.29       0.00       0.00       2.46      17.57       1.12      18.69        0.44     0.18   0.803
  708                       23.29       0.00       0.00       2.46      17.57       1.12      18.69        0.61     0.25   0.803
  709                       23.29       0.00       0.00       2.46      17.57       1.12      18.69        0.29     0.12   0.803
  710                       23.29       0.00       0.00       2.46      17.57       1.12      18.69        0.19     0.08   0.803
  711                       23.29       0.00       0.00       2.46      17.57       1.12      18.69        0.16     0.06   0.803
  712                       23.29       0.00       0.00       2.46      17.57       1.12      18.69        0.46     0.19   0.803
  713                       23.29       0.00       0.00       2.46      17.57       1.12      18.69        0.19     0.08   0.803
  714                       23.29       0.00       0.00       2.46      17.57       1.12      18.69        0.19     0.08   0.803
  715                       23.29       0.00       0.00       2.46      17.57       1.12      18.69        0.19     0.08   0.803
  716                       23.29       0.00       0.00       2.46      17.57       1.12      18.69        0.19     0.08   0.803
  717                       23.29       0.00       0.00       2.46      17.57       1.12      18.69        0.19     0.08   0.803
  718                       23.29       0.00       0.00       2.46      17.57       1.12      18.69        0.28     0.11   0.803
  719                       23.29       0.00       0.00       2.46      17.57       1.12      18.69        0.28     0.11   0.803
  720                       23.29       0.00       0.00       2.46      17.57       1.12      18.69        0.28     0.11   0.803
  721                       23.29       0.00       0.00       2.46      17.57       1.12      18.69        0.28     0.11   0.803
  722                       23.29       0.00       0.00       2.46      17.57       1.12      18.69        0.28     0.11   0.803
  723                       23.29       0.00       0.00       2.46      17.57       1.12      18.69        0.28     0.11   0.803
  724                       23.29       0.00       0.00       2.46      17.57       1.12      18.69        0.28     0.11   0.803
  725                       23.29       0.00       0.00       2.46      17.57       1.12      18.69        0.28     0.11   0.803
  726                       23.29       0.00       0.00       2.46      17.57       1.12      18.69        0.28     0.11   0.803
  727                       23.29       0.00       0.00       2.46      17.57       1.12      18.69        0.28     0.11   0.803
  728                       23.29       0.00       0.00       2.46      17.57       1.12      18.69        0.28     0.11   0.803
  729                       23.29       0.00       0.00       2.46      17.57       1.12      18.69        0.28     0.11   0.803
  730                       23.29       0.00       0.00       2.46      17.57       1.12      18.69        0.28     0.11   0.803
  731                       23.29       0.00       0.00       2.46      17.57       1.12      18.69        0.28     0.11   0.803
  732                       23.29       0.00       0.00       2.46      17.57       1.12      18.69        0.28     0.11   0.803
  733                       23.29       0.00       0.00       2.46      17.57       1.12      18.69        0.28     0.11   0.803
  734                       23.29       0.00       0.00       2.46      17.57       1.12      18.69        0.28     0.11   0.803
  735                       23.29       0.00       0.00       2.46      17.57       1.12      18.69        0.28     0.11   0.803
  736                       23.29       0.00       0.00       2.46      17.57       1.12      18.69        0.28     0.11   0.803
  737                       23.29       0.00       0.00       2.46      17.57       1.12      18.69        0.28     0.11   0.803
  738                       23.29       0.00       0.00       2.46      17.57       1.12      18.69        0.28     0.11   0.803
  739                       23.29       0.00       0.00       2.46      17.57       1.12      18.69        0.28     0.11   0.803
  740                       23.29       0.00       0.00       2.46      17.57       1.12      18.69        0.28     0.11   0.803
  741                       23.29       0.00       0.00       2.46      17.57       1.12      18.69        0.28     0.11   0.803
  742                       23.29       0.00       0.00       2.46      17.57       1.12      18.69        0.28     0.11   0.803
  743                       23.29       0.00       0.00       2.46      17.57       1.12      18.69        0.28     0.11   0.803
  744                       23.29       0.00       0.00       2.46      17.57       1.12      18.69        0.19     0.08   0.803
  745                       23.29       0.00       0.00       0.00      17.57       2.81      20.37        0.31     0.12   0.875
  746                       23.29       0.00       0.00       0.00      17.57       2.81      20.37        0.31     0.12   0.875
  747                       23.29       0.00       0.00       0.00      17.57       2.81      20.37        0.41     0.16   0.875
  
  
  ******************
  Node Depth Summary
  ******************
  
  ---------------------------------------------------------------------------------
                                 Average  Maximum  Maximum  Time of Max    Reported
                                   Depth    Depth      HGL   Occurrence   Max Depth
  Node                 Type       Meters   Meters   Meters  days hr:min      Meters
  ---------------------------------------------------------------------------------
  1                    JUNCTION     0.48     1.42    18.27     0  01:53        1.42
  2                    JUNCTION     0.89     2.91    18.14     0  01:58        2.91
  3                    JUNCTION     0.43     1.63    18.13     0  02:00        1.63
  4                    JUNCTION     0.50     1.92    18.09     0  02:04        1.92
  5                    JUNCTION     0.51     1.98    18.08     0  02:04        1.98
  6                    JUNCTION     0.62     2.28    18.08     0  02:02        2.28
  7                    JUNCTION     0.70     2.52    18.06     0  02:00        2.52
  8                    JUNCTION     1.09     3.46    18.06     0  01:59        3.46
  9                    JUNCTION     1.05     3.38    18.07     0  01:58        3.38
  10                   JUNCTION     0.35     1.31    18.16     0  02:01        1.31
  11                   JUNCTION     0.47     1.56    18.17     0  02:00        1.56
  12                   JUNCTION     0.37     1.33    18.18     0  01:53        1.33
  13                   JUNCTION     0.47     1.61    18.18     0  01:55        1.61
  14                   JUNCTION     0.49     1.75    18.11     0  01:59        1.75
  15                   JUNCTION     0.56     2.01    18.05     0  01:57        2.01
  16                   JUNCTION     0.59     2.14    18.02     0  01:55        2.14
  17                   JUNCTION     0.63     2.28    18.02     0  01:54        2.28
  18                   JUNCTION     0.73     2.56    18.01     0  01:50        2.56
  19                   JUNCTION     0.78     2.85    17.99     0  01:48        2.84
  20                   JUNCTION     0.85     3.07    17.98     0  01:46        3.07
  21                   JUNCTION     0.22     1.16    18.01     0  01:48        1.16
  22                   JUNCTION     0.23     1.44    18.00     0  01:36        1.44
  23                   JUNCTION     0.18     1.15    18.00     0  01:53        1.15
  24                   JUNCTION     0.27     1.48    18.04     0  01:57        1.48
  25                   JUNCTION     0.30     1.26    18.11     0  02:01        1.26
  26                   JUNCTION     0.49     1.68    18.19     0  01:53        1.68
  27                   JUNCTION     0.49     1.76    18.14     0  01:58        1.76
  28                   JUNCTION     0.56     1.82    18.15     0  02:04        1.82
  29                   JUNCTION     0.72     2.28    18.12     0  01:59        2.28
  30                   JUNCTION     0.82     2.63    18.11     0  01:59        2.63
  31                   JUNCTION     0.61     2.02    18.14     0  01:53        2.02
  32                   JUNCTION     0.61     2.27    18.06     0  01:55        2.27
  33                   JUNCTION     0.65     2.44    18.03     0  01:53        2.44
  34                   JUNCTION     0.74     2.87    17.99     0  01:55        2.86
  35                   JUNCTION     0.78     2.99    17.98     0  01:50        2.99
  36                   JUNCTION     0.30     1.61    18.00     0  01:35        1.58
  37                   JUNCTION     0.89     3.21    17.96     0  01:46        3.21
  38                   JUNCTION     1.26     4.04    17.90     0  01:47        4.03
  39                   JUNCTION     1.10     3.76    17.93     0  01:47        3.75
  40                   JUNCTION     1.05     3.67    17.93     0  01:47        3.66
  41                   JUNCTION     0.86     3.23    17.96     0  01:47        3.23
  42                   JUNCTION     0.23     1.35    17.99     0  01:47        1.35
  43                   JUNCTION     0.47     1.69    18.04     0  01:50        1.69
  44                   JUNCTION     0.84     2.84    18.04     0  01:55        2.84
  45                   JUNCTION     1.37     4.03    18.02     0  01:54        4.03
  46                   JUNCTION     1.16     3.63    18.04     0  01:56        3.63
  47                   JUNCTION     1.46     4.22    18.00     0  01:55        4.21
  48                   JUNCTION     1.53     4.42    18.00     0  01:55        4.36
  49                   JUNCTION     0.33     1.80    18.00     0  01:36        1.76
  50                   JUNCTION     0.40     1.67    18.00     0  01:41        1.64
  51                   JUNCTION     0.52     1.86    18.02     0  01:48        1.86
  52                   JUNCTION     0.52     2.02    17.95     0  01:47        2.01
  53                   JUNCTION     0.67     2.62    17.91     0  01:45        2.60
  54                   JUNCTION     0.45     1.73    17.94     0  01:45        1.71
  55                   JUNCTION     0.28     1.34    17.96     0  01:45        1.33
  56                   JUNCTION     0.34     1.21    18.01     0  01:49        1.21
  57                   JUNCTION     1.82     4.91    17.85     0  01:50        4.90
  58                   JUNCTION     1.74     4.82    17.93     0  01:55        4.78
  59                   JUNCTION     1.65     4.70    17.99     0  01:55        4.62
  60                   JUNCTION     1.31     4.10    17.89     0  01:47        4.10
  61                   JUNCTION     1.33     4.15    17.86     0  01:47        4.14
  62                   JUNCTION     1.35     4.18    17.83     0  01:48        4.18
  63                   JUNCTION     1.54     4.51    17.78     0  01:50        4.51
  64                   JUNCTION     1.57     4.56    17.77     0  01:50        4.55
  65                   JUNCTION     1.62     4.64    17.72     0  01:50        4.64
  66                   JUNCTION     1.60     4.60    17.74     0  01:47        4.59
  67                   JUNCTION     1.65     4.69    17.71     0  01:50        4.68
  68                   JUNCTION     1.68     4.72    17.68     0  01:50        4.71
  69                   JUNCTION     1.70     4.74    17.65     0  01:53        4.74
  70                   JUNCTION     1.73     4.78    17.63     0  01:53        4.78
  71                   JUNCTION     1.75     4.81    17.60     0  01:50        4.81
  72                   JUNCTION     1.25     4.00    17.54     0  01:53        4.00
  73                   JUNCTION     1.06     3.63    17.63     0  01:50        3.62
  74                   JUNCTION     0.98     3.43    17.69     0  01:50        3.43
  75                   JUNCTION     0.94     3.33    17.73     0  01:50        3.33
  76                   JUNCTION     0.87     3.20    17.86     0  01:45        3.13
  77                   JUNCTION     0.84     3.08    17.86     0  01:45        3.04
  78                   JUNCTION     0.79     2.98    17.89     0  01:45        2.94
  79                   JUNCTION     0.75     2.86    17.89     0  01:45        2.83
  80                   JUNCTION     0.71     2.74    17.90     0  01:45        2.72
  81                   JUNCTION     0.25     1.32    17.94     0  01:45        1.28
  82                   JUNCTION     0.33     1.57    17.96     0  01:45        1.51
  83                   JUNCTION     0.45     1.81    17.96     0  01:45        1.74
  84                   JUNCTION     0.56     2.09    17.96     0  01:45        1.99
  85                   JUNCTION     0.61     2.22    17.89     0  01:45        2.15
  86                   JUNCTION     0.71     2.44    17.84     0  01:47        2.44
  87                   JUNCTION     0.75     2.64    17.74     0  01:47        2.63
  88                   JUNCTION     0.84     2.90    17.66     0  01:48        2.90
  89                   JUNCTION     0.29     1.23    17.68     0  01:50        1.23
  90                   JUNCTION     0.34     1.43    17.63     0  01:50        1.43
  91                   JUNCTION     0.36     1.50    17.60     0  01:50        1.50
  92                   JUNCTION     0.44     1.88    17.52     0  01:50        1.88
  93                   JUNCTION     1.45     4.32    17.51     0  01:53        4.31
  94                   JUNCTION     1.78     4.84    17.57     0  01:53        4.84
  95                   JUNCTION     0.33     1.45    17.50     0  01:50        1.44
  96                   JUNCTION     0.37     1.55    17.48     0  01:50        1.55
  97                   JUNCTION     0.16     0.95    17.45     0  01:48        0.93
  98                   JUNCTION     0.30     1.37    17.28     0  01:50        1.36
  99                   JUNCTION     0.20     1.05    17.31     0  01:50        1.05
  100                  JUNCTION     0.34     1.56    17.79     0  01:34        1.49
  101                  JUNCTION     0.25     1.50    18.00     0  01:34        1.38
  102                  JUNCTION     0.51     1.81    18.04     0  01:44        1.81
  103                  JUNCTION     0.46     1.73    18.10     0  01:45        1.73
  104                  JUNCTION     0.49     1.81    18.09     0  01:46        1.81
  105                  JUNCTION     0.41     1.61    18.11     0  01:48        1.61
  106                  JUNCTION     0.49     1.83    18.11     0  01:47        1.83
  107                  JUNCTION     0.37     1.61    18.11     0  01:54        1.61
  108                  JUNCTION     0.34     1.51    18.11     0  01:50        1.51
  109                  JUNCTION     0.54     1.95    18.12     0  01:42        1.95
  110                  JUNCTION     0.27     1.44    18.00     0  01:31        1.44
  111                  JUNCTION     0.57     2.20    18.00     0  01:33        2.20
  112                  JUNCTION     0.68     2.50    17.94     0  01:33        2.49
  113                  JUNCTION     0.57     2.11    17.93     0  01:33        2.05
  114                  JUNCTION     0.59     2.14    17.75     0  01:37        2.12
  115                  JUNCTION     0.52     1.87    17.76     0  01:37        1.86
  116                  JUNCTION     0.15     0.92    17.54     0  01:44        0.92
  117                  JUNCTION     0.43     1.79    17.54     0  01:43        1.79
  118                  JUNCTION     0.18     0.87    17.48     0  01:44        0.87
  119                  JUNCTION     0.36     1.63    17.17     0  01:53        1.62
  120                  JUNCTION     1.88     4.93    17.37     0  01:54        4.93
  121                  JUNCTION     1.88     4.94    17.41     0  01:53        4.94
  122                  JUNCTION     1.87     4.95    17.47     0  01:54        4.95
  123                  JUNCTION     1.47     4.34    17.49     0  01:50        4.34
  124                  JUNCTION     1.90     5.04    17.78     0  01:49        5.03
  125                  JUNCTION     0.69     2.25    17.91     0  01:45        2.25
  126                  JUNCTION     0.80     2.45    17.91     0  01:45        2.45
  127                  JUNCTION     0.86     2.56    17.91     0  01:45        2.55
  128                  JUNCTION     1.06     2.98    18.04     0  01:31        2.98
  129                  JUNCTION     1.14     3.14    18.00     0  01:24        3.10
  130                  JUNCTION     1.15     3.30    18.00     0  01:24        3.10
  131                  JUNCTION     1.13     3.45    18.00     0  01:27        3.19
  132                  JUNCTION     1.13     3.36    17.76     0  01:29        3.29
  133                  JUNCTION     1.24     3.65    17.63     0  01:49        3.65
  134                  JUNCTION     1.26     3.72    17.59     0  01:50        3.71
  135                  JUNCTION     1.27     3.77    17.54     0  01:49        3.77
  136                  JUNCTION     1.28     3.82    17.49     0  01:50        3.82
  137                  JUNCTION     1.29     3.87    17.43     0  01:50        3.87
  138                  JUNCTION     1.29     3.90    17.35     0  01:50        3.89
  139                  JUNCTION     1.28     3.89    17.24     0  01:54        3.89
  140                  JUNCTION     1.89     4.87    17.12     0  01:54        4.87
  141                  JUNCTION     1.86     4.80    16.99     0  01:54        4.79
  142                  JUNCTION     0.48     1.60    17.50     0  01:42        1.60
  143                  JUNCTION     0.57     2.36    17.48     0  01:42        2.36
  144                  JUNCTION     0.03     0.28    16.40     0  01:46        0.28
  145                  JUNCTION     0.55     2.01    17.40     0  01:39        2.01
  146                  JUNCTION     0.70     2.43    17.40     0  01:42        2.43
  147                  JUNCTION     0.30     1.90    18.00     0  01:32        1.35
  148                  JUNCTION     0.61     2.33    17.28     0  01:43        2.33
  149                  JUNCTION     0.26     1.91    18.00     0  01:33        1.90
  150                  JUNCTION     0.48     2.19    18.00     0  01:33        2.14
  151                  JUNCTION     0.68     2.48    18.01     0  01:28        2.48
  152                  JUNCTION     0.78     2.43    18.08     0  01:45        2.43
  153                  JUNCTION     0.57     2.04    18.11     0  01:53        2.04
  154                  JUNCTION     0.84     2.41    18.12     0  01:55        2.41
  155                  JUNCTION     0.88     2.37    18.16     0  02:02        2.37
  156                  JUNCTION     0.71     1.92    18.19     0  01:59        1.92
  157                  JUNCTION     0.44     1.54    18.16     0  01:59        1.54
  158                  JUNCTION     0.46     1.65    18.15     0  01:57        1.65
  159                  JUNCTION     0.51     1.80    18.17     0  01:48        1.80
  160                  JUNCTION     0.62     2.00    18.17     0  01:47        2.00
  161                  JUNCTION     1.98     5.15    17.66     0  01:53        5.15
  162                  JUNCTION     2.02     5.20    17.60     0  01:53        5.20
  163                  JUNCTION     2.04     5.24    17.56     0  01:54        5.24
  164                  JUNCTION     2.07     5.28    17.52     0  01:54        5.28
  165                  JUNCTION     2.09     5.32    17.47     0  01:55        5.32
  166                  JUNCTION     2.11     5.35    17.42     0  01:55        5.34
  167                  JUNCTION     2.13     5.37    17.37     0  01:55        5.37
  168                  JUNCTION     2.14     5.39    17.30     0  01:55        5.39
  169                  JUNCTION     2.15     5.40    17.23     0  01:54        5.39
  170                  JUNCTION     2.16     5.40    17.16     0  01:55        5.40
  171                  JUNCTION     2.18     5.40    17.08     0  01:55        5.40
  172                  JUNCTION     2.18     5.39    16.99     0  01:55        5.39
  173                  JUNCTION     2.19     5.38    16.90     0  01:55        5.38
  174                  JUNCTION     2.20     5.37    16.81     0  01:54        5.37
  175                  JUNCTION     2.21     5.35    16.71     0  01:54        5.35
  176                  JUNCTION     2.22     5.33    16.61     0  01:54        5.33
  177                  JUNCTION     2.45     5.61    16.50     0  01:54        5.61
  178                  JUNCTION     0.75     2.36    17.60     0  01:31        2.36
  179                  JUNCTION     0.72     2.89    17.45     0  01:42        2.89
  180                  JUNCTION     0.03     0.31    15.78     0  01:46        0.31
  181                  JUNCTION     0.50     1.92    16.88     0  01:36        1.92
  182                  JUNCTION     0.64     2.30    16.71     0  01:44        2.30
  183                  JUNCTION     0.06     0.21    17.06     0  01:37        0.21
  184                  JUNCTION     0.44     1.64    16.16     0  01:44        1.64
  185                  JUNCTION     0.08     0.84    17.69     0  01:34        0.78
  186                  JUNCTION     0.54     2.36    17.51     0  01:35        2.27
  187                  JUNCTION     0.93     2.73    16.92     0  01:35        2.69
  188                  JUNCTION     1.10     3.47    17.87     0  01:28        3.24
  189                  JUNCTION     1.16     3.35    17.99     0  01:35        3.34
  190                  JUNCTION     1.07     2.93    18.11     0  01:47        2.93
  191                  JUNCTION     1.00     2.64    18.12     0  01:57        2.64
  192                  JUNCTION     0.49     1.77    18.16     0  02:10        1.77
  193                  JUNCTION     0.69     2.33    18.13     0  02:02        2.33
  194                  JUNCTION     1.14     3.23    18.11     0  01:58        3.23
  195                  JUNCTION     0.35     1.29    18.14     0  01:53        1.29
  196                  JUNCTION     0.50     1.80    18.18     0  01:45        1.80
  197                  JUNCTION     0.63     2.20    18.12     0  01:44        2.20
  198                  JUNCTION     1.33     3.65    18.07     0  01:50        3.65
  199                  JUNCTION     1.46     3.96    18.03     0  01:44        3.96
  200                  JUNCTION     0.61     2.08    18.12     0  01:43        2.08
  201                  JUNCTION     0.47     1.64    18.11     0  01:41        1.64
  202                  JUNCTION     0.35     1.36    18.16     0  01:38        1.36
  203                  JUNCTION     0.24     1.47    18.00     0  01:30        1.47
  204                  JUNCTION     0.36     1.98    18.00     0  01:25        1.75
  205                  JUNCTION     1.33     4.18    18.00     0  01:27        3.97
  206                  JUNCTION     1.10     3.92    17.46     0  01:29        3.88
  207                  JUNCTION     0.20     1.66    18.00     0  01:27        1.31
  208                  JUNCTION     0.09     1.15    18.00     0  01:28        0.87
  209                  JUNCTION     0.63     1.68    15.70     0  01:33        1.68
  210                  JUNCTION     0.25     1.14    17.53     0  01:32        1.14
  211                  JUNCTION     0.17     0.56    16.29     0  01:38        0.56
  212                  JUNCTION     0.64     2.22    15.35     0  01:33        2.22
  213                  JUNCTION     0.48     1.38    14.23     0  01:34        1.38
  214                  JUNCTION     0.03     0.15    16.34     0  01:41        0.15
  215                  JUNCTION     0.49     1.06    14.55     0  01:39        1.06
  216                  JUNCTION     0.03     0.16    17.01     0  01:34        0.16
  217                  JUNCTION     0.50     1.00    14.02     0  01:39        1.00
  218                  JUNCTION     0.50     1.03    13.63     0  01:33        1.02
  219                  JUNCTION     0.49     0.97    13.45     0  01:34        0.97
  220                  JUNCTION     0.56     1.12    12.88     0  01:33        1.12
  221                  JUNCTION     0.63     1.32    12.51     0  01:44        1.32
  222                  JUNCTION     0.38     1.53    15.24     0  01:20        1.16
  223                  JUNCTION     0.42     1.50    15.54     0  01:32        1.50
  224                  JUNCTION     0.42     1.54    15.89     0  01:35        1.54
  225                  JUNCTION     0.03     0.29    15.12     0  01:50        0.29
  226                  JUNCTION     0.03     0.28    14.58     0  01:55        0.28
  227                  JUNCTION     0.04     0.26    14.02     0  01:59        0.26
  228                  JUNCTION     0.62     1.31    12.45     0  01:45        1.31
  229                  JUNCTION     0.60     2.28    16.29     0  01:47        2.28
  230                  JUNCTION     0.51     2.96    16.49     0  01:23        1.82
  231                  JUNCTION     0.43     2.02    15.08     0  01:23        1.38
  232                  JUNCTION     0.66     1.40    12.39     0  01:44        1.40
  233                  JUNCTION     0.97     3.46    18.06     0  01:32        3.46
  234                  JUNCTION     0.65     2.77    16.75     0  01:29        2.77
  235                  JUNCTION     0.40     1.50    14.97     0  01:29        1.50
  236                  JUNCTION     0.65     1.40    12.33     0  01:46        1.40
  237                  JUNCTION     2.30     5.01    15.53     0  01:55        5.01
  238                  JUNCTION     1.91     4.07    14.43     0  01:54        4.06
  239                  JUNCTION     1.54     3.16    13.37     0  01:53        3.16
  240                  JUNCTION     1.43     2.70    12.26     0  01:47        2.70
  241                  JUNCTION     1.68     4.18    15.73     0  01:56        4.18
  242                  JUNCTION     0.08     0.26    16.44     0  01:30        0.26
  243                  JUNCTION     0.12     0.39    15.81     0  01:30        0.39
  244                  JUNCTION     0.00     0.00    16.65     0  00:00        0.00
  245                  JUNCTION     0.74     1.90    13.62     0  01:45        1.90
  246                  JUNCTION     1.66     4.18    15.88     0  02:00        4.18
  247                  JUNCTION     0.01     0.06    16.43     0  01:39        0.06
  248                  JUNCTION     0.80     3.01    16.49     0  01:34        2.94
  249                  JUNCTION     0.69     2.48    15.55     0  01:45        2.48
  250                  JUNCTION     1.04     2.96    14.79     0  01:44        2.96
  251                  JUNCTION     1.65     4.20    16.06     0  02:02        4.20
  252                  JUNCTION     0.14     1.05    17.42     0  01:29        0.83
  253                  JUNCTION     0.85     3.23    16.86     0  01:34        3.14
  254                  JUNCTION     1.65     4.23    16.24     0  02:04        4.23
  255                  JUNCTION     0.30     1.63    18.00     0  01:30        1.63
  256                  JUNCTION     0.86     3.29    17.20     0  01:34        3.23
  257                  JUNCTION     0.31     1.79    18.06     0  01:32        1.79
  258                  JUNCTION     1.17     3.71    15.81     0  01:44        3.71
  259                  JUNCTION     1.64     4.27    16.43     0  02:04        4.27
  260                  JUNCTION     0.17     1.68    18.00     0  01:31        1.07
  261                  JUNCTION     0.85     3.24    17.35     0  01:31        3.20
  262                  JUNCTION     0.02     0.18    17.03     0  01:42        0.18
  263                  JUNCTION     1.22     3.97    16.20     0  01:45        3.96
  264                  JUNCTION     1.63     4.30    16.62     0  02:04        4.30
  265                  JUNCTION     0.71     3.24    18.00     0  01:28        2.76
  266                  JUNCTION     0.86     3.22    17.48     0  01:35        3.22
  267                  JUNCTION     0.92     3.50    17.07     0  01:45        3.49
  268                  JUNCTION     1.26     4.15    16.52     0  01:45        4.14
  269                  JUNCTION     1.60     4.31    16.77     0  02:03        4.31
  270                  JUNCTION     1.57     4.32    16.93     0  02:03        4.32
  271                  JUNCTION     0.55     2.21    17.56     0  01:48        2.21
  272                  JUNCTION     0.13     1.33    17.60     0  01:47        1.33
  273                  JUNCTION     0.97     3.68    17.46     0  01:46        3.67
  274                  JUNCTION     1.06     4.00    17.25     0  01:41        3.97
  275                  JUNCTION     1.54     4.32    17.07     0  02:02        4.32
  276                  JUNCTION     1.48     4.28    17.19     0  02:02        4.27
  277                  JUNCTION     1.34     4.11    17.29     0  02:00        4.11
  278                  JUNCTION     1.25     4.00    17.38     0  02:00        4.00
  279                  JUNCTION     0.41     1.74    17.96     0  01:40        1.73
  280                  JUNCTION     0.43     1.86    17.88     0  01:40        1.85
  281                  JUNCTION     0.85     3.50    18.00     0  01:30        3.45
  282                  JUNCTION     0.46     2.22    17.91     0  01:45        2.21
  283                  JUNCTION     0.48     2.27    17.76     0  01:46        2.26
  284                  JUNCTION     0.11     1.15    17.68     0  01:46        1.15
  285                  JUNCTION     0.96     3.70    17.67     0  01:46        3.69
  286                  JUNCTION     0.96     3.70    17.76     0  01:45        3.70
  287                  JUNCTION     0.94     3.67    17.85     0  01:45        3.67
  288                  JUNCTION     0.91     3.61    17.91     0  01:44        3.60
  289                  JUNCTION     0.22     1.43    17.99     0  01:44        1.42
  290                  JUNCTION     0.93     3.80    18.00     0  01:36        3.79
  291                  JUNCTION     1.05     4.09    18.00     0  01:39        4.06
  292                  JUNCTION     1.08     4.17    17.85     0  01:44        4.15
  293                  JUNCTION     1.08     4.17    17.71     0  01:45        4.16
  294                  JUNCTION     0.74     3.22    18.00     0  01:34        3.22
  295                  JUNCTION     0.11     1.15    18.00     0  01:35        1.14
  296                  JUNCTION     0.79     3.32    17.99     0  01:30        3.30
  297                  JUNCTION     0.73     3.14    17.99     0  01:43        3.14
  298                  JUNCTION     0.15     1.15    18.00     0  01:33        0.82
  299                  JUNCTION     1.17     3.87    17.45     0  02:02        3.87
  300                  JUNCTION     1.09     3.72    17.49     0  02:01        3.71
  301                  JUNCTION     0.99     3.54    17.51     0  02:01        3.54
  302                  JUNCTION     0.82     3.18    17.53     0  02:01        3.18
  303                  JUNCTION     0.21     1.66    18.00     0  01:32        1.66
  304                  JUNCTION     0.47     2.35    18.01     0  01:46        2.35
  305                  JUNCTION     0.35     1.96    18.04     0  01:47        1.96
  306                  JUNCTION     0.57     2.73    18.00     0  01:37        2.73
  307                  JUNCTION     0.40     1.51    18.18     0  01:49        1.51
  308                  JUNCTION     0.60     2.22    18.15     0  01:56        2.22
  309                  JUNCTION     0.33     1.31    18.16     0  02:00        1.31
  310                  JUNCTION     0.41     1.51    18.18     0  01:47        1.51
  311                  JUNCTION     0.37     1.41    18.21     0  01:47        1.41
  312                  JUNCTION     0.26     1.27    18.12     0  01:57        1.27
  313                  JUNCTION     0.32     1.30    18.15     0  01:49        1.30
  314                  JUNCTION     0.34     1.37    18.17     0  01:47        1.37
  315                  JUNCTION     0.32     1.33    18.13     0  01:47        1.33
  316                  JUNCTION     0.36     1.46    18.13     0  01:44        1.46
  317                  JUNCTION     0.37     1.50    18.30     0  01:42        1.50
  318                  JUNCTION     0.15     1.15    18.00     0  01:32        1.07
  319                  JUNCTION     0.13     1.15    18.00     0  01:33        0.90
  320                  JUNCTION     0.16     0.93    17.78     0  01:30        0.92
  321                  JUNCTION     0.12     0.80    17.47     0  01:48        0.62
  322                  JUNCTION     0.15     1.03    17.83     0  01:48        0.78
  323                  JUNCTION     0.05     1.15    18.00     0  01:44        0.63
  324                  JUNCTION     0.14     0.98    17.78     0  01:43        0.74
  325                  JUNCTION     0.14     1.08    17.88     0  01:42        0.79
  326                  JUNCTION     0.14     1.05    17.85     0  01:42        0.82
  327                  JUNCTION     0.18     1.02    17.69     0  01:41        0.97
  328                  JUNCTION     0.18     1.33    18.00     0  01:41        1.30
  329                  JUNCTION     0.09     1.15    18.00     0  01:41        0.82
  330                  JUNCTION     0.21     1.08    17.75     0  01:47        1.07
  331                  JUNCTION     0.09     1.15    18.00     0  01:40        0.87
  332                  JUNCTION     0.16     0.96    17.76     0  01:50        0.96
  333                  JUNCTION     0.10     1.12    17.97     0  01:40        0.91
  334                  JUNCTION     0.10     1.15    18.00     0  01:40        0.92
  335                  JUNCTION     0.17     1.20    18.00     0  01:39        1.03
  336                  JUNCTION     0.21     1.15    18.00     0  01:43        1.13
  337                  JUNCTION     0.43     1.50    18.17     0  01:49        1.50
  338                  JUNCTION     0.23     1.24    18.09     0  02:05        1.24
  339                  JUNCTION     0.32     1.27    18.12     0  02:04        1.27
  340                  JUNCTION     0.36     1.32    18.17     0  02:00        1.32
  341                  JUNCTION     0.28     1.30    18.15     0  02:09        1.30
  342                  JUNCTION     0.19     1.16    18.01     0  01:39        1.16
  343                  JUNCTION     0.14     1.16    18.01     0  01:49        1.16
  344                  JUNCTION     0.04     0.35    17.20     0  02:14        0.35
  345                  JUNCTION     0.10     1.17    18.02     0  01:38        1.17
  346                  JUNCTION     0.04     1.15    18.00     0  01:45        1.15
  348                  JUNCTION     0.00     0.00    16.85     0  00:00        0.00
  349                  JUNCTION     0.11     1.16    18.01     0  01:29        1.16
  350                  JUNCTION     0.32     1.31    18.16     0  02:09        1.31
  z_0512_001_096       JUNCTION     0.00     0.00    16.85     0  00:00        0.00
  z_0512_001_097       JUNCTION     0.13     1.21    18.06     0  01:35        1.21
  z_0512_001_099       JUNCTION     0.00     0.00    16.85     0  00:00        0.00
  z_0512_001_100       JUNCTION     0.00     0.00    16.85     0  00:00        0.00
  z_0512_001_101       JUNCTION     0.00     0.00    16.85     0  00:00        0.00
  z_0512_001_102       JUNCTION     0.00     0.00    16.85     0  00:00        0.00
  z_0512_001_107       JUNCTION     0.14     1.20    18.05     0  01:38        1.20
  z_0512_001_115       JUNCTION     0.01     0.28    17.13     0  01:49        0.28
  347                  OUTFALL      1.05     1.73    11.12     0  01:47        1.73
  
  
  *******************
  Node Inflow Summary
  *******************
  
  -------------------------------------------------------------------------------------------------
                                  Maximum  Maximum                  Lateral       Total        Flow
                                  Lateral    Total  Time of Max      Inflow      Inflow     Balance
                                   Inflow   Inflow   Occurrence      Volume      Volume       Error
  Node                 Type           CMS      CMS  days hr:min    10^6 ltr    10^6 ltr     Percent
  -------------------------------------------------------------------------------------------------
  1                    JUNCTION     0.139    0.139     0  01:30        0.34       0.342       1.150
  2                    JUNCTION     0.133    0.562     0  01:29       0.327        1.37       1.254
  3                    JUNCTION     0.114    0.264     0  01:32        0.28       0.649       0.229
  4                    JUNCTION     0.000    0.374     0  01:30           0       0.958      -0.332
  5                    JUNCTION     0.000    0.373     0  01:30           0       0.988       0.919
  6                    JUNCTION     0.138    0.683     0  01:30       0.338        1.66      -0.458
  7                    JUNCTION     0.090    0.904     0  01:30       0.221        2.17       1.734
  8                    JUNCTION     0.000    0.688     0  01:28           0        2.07       0.044
  9                    JUNCTION     0.296    0.711     0  01:28       0.727        2.04      -0.556
  10                   JUNCTION     0.111    0.183     0  01:30       0.273       0.409       1.179
  11                   JUNCTION     0.139    0.179     0  01:30        0.34       0.516       0.439
  12                   JUNCTION     0.260    0.260     0  01:30       0.639       0.671       0.797
  13                   JUNCTION     0.161    0.258     0  01:26       0.394       0.665      -0.160
  14                   JUNCTION     0.000    0.216     0  01:26           0       0.743       0.876
  15                   JUNCTION     0.151    0.339     0  01:26        0.37        1.09      -0.183
  16                   JUNCTION     0.000    0.313     0  01:27           0        1.03       0.118
  17                   JUNCTION     0.000    0.275     0  01:27           0       0.876       0.257
  18                   JUNCTION     0.140    0.409     0  01:29       0.344        1.22      -0.112
  19                   JUNCTION     0.000    0.330     0  01:26           0        1.18       0.334
  20                   JUNCTION     0.076    0.398     0  01:26       0.187        1.37      -0.349
  21                   JUNCTION     0.132    0.132     0  01:32       0.323       0.359       1.935
  22                   JUNCTION     0.000    0.109     0  01:36           0      0.0993       0.541
  23                   JUNCTION     0.000    0.101     0  01:35           0       0.153       2.558
  24                   JUNCTION     0.000    0.118     0  01:32           0      0.0657       5.319
  25                   JUNCTION     0.145    0.171     0  01:26       0.357       0.379       3.111
  26                   JUNCTION     0.189    0.189     0  01:30       0.464       0.469       0.308
  27                   JUNCTION     0.166    0.321     0  01:25       0.408       0.725       1.225
  28                   JUNCTION     0.000    0.109     0  01:17           0       0.349       0.943
  29                   JUNCTION     0.179    0.256     0  01:30       0.439       0.783       0.910
  30                   JUNCTION     0.000    0.601     0  01:27           0        1.39      -0.895
  31                   JUNCTION     0.268    0.400     0  01:30       0.658        1.08       1.031
  32                   JUNCTION     0.000    0.418     0  01:26           0        1.19      -0.527
  33                   JUNCTION     0.143    0.543     0  01:29       0.351        1.61       0.900
  34                   JUNCTION     0.000    0.575     0  01:30           0        1.74      -0.690
  35                   JUNCTION     0.000    0.572     0  01:31           0        1.85       0.122
  36                   JUNCTION     0.000    0.131     0  01:35           0        0.31      -0.436
  37                   JUNCTION     0.076    0.467     0  01:26       0.187        1.62       1.349
  38                   JUNCTION     0.144    1.198     0  01:26       0.353         5.4      -0.428
  39                   JUNCTION     0.257    0.748     0  01:42       0.632        3.45       0.135
  40                   JUNCTION     0.154    0.801     0  01:27       0.378        2.76      -0.503
  41                   JUNCTION     0.000    0.687     0  01:28           0           2       0.815
  42                   JUNCTION     0.000    0.148     0  01:39           0       0.238      -0.288
  43                   JUNCTION     0.358    0.358     0  01:30       0.879       0.951       3.159
  44                   JUNCTION     0.000    0.530     0  01:28           0        1.42       1.424
  45                   JUNCTION     0.000    1.431     0  01:30           0        4.42      -1.013
  46                   JUNCTION     0.114    0.748     0  01:26        0.28        2.33       0.801
  47                   JUNCTION     0.000    1.605     0  01:30           0        5.81      -0.111
  48                   JUNCTION     0.000    1.627     0  01:27           0        6.46       0.295
  49                   JUNCTION     0.000    0.176     0  01:35           0       0.166       0.883
  50                   JUNCTION     0.221    0.339     0  01:30       0.542       0.671       2.940
  51                   JUNCTION     0.395    0.453     0  01:30        0.97        1.05      -0.154
  52                   JUNCTION     0.000    0.346     0  01:27           0       0.864       0.826
  53                   JUNCTION     0.355    0.759     0  01:30       0.871        1.81      -0.490
  54                   JUNCTION     0.119    0.278     0  01:24       0.292        0.49       0.892
  55                   JUNCTION     0.000    0.168     0  01:25           0       0.226       0.475
  56                   JUNCTION     0.510    0.510     0  01:30        1.25        1.27       0.374
  57                   JUNCTION     0.000    2.030     0  01:34           0        8.64       0.117
  58                   JUNCTION     0.201    1.805     0  01:34       0.494         7.6      -0.085
  59                   JUNCTION     0.000    1.577     0  01:27           0        6.57      -0.373
  60                   JUNCTION     0.244    1.900     0  01:25       0.598        7.74      -0.139
  61                   JUNCTION     0.114    2.049     0  01:25        0.28        8.35      -0.044
  62                   JUNCTION     0.159    2.173     0  01:25       0.391        8.99       0.276
  63                   JUNCTION     0.141    2.172     0  01:25       0.346        9.37      -0.302
  64                   JUNCTION     0.279    2.236     0  01:24       0.684        10.1       0.009
  65                   JUNCTION     0.138    2.164     0  01:23       0.338          11       0.030
  66                   JUNCTION     0.139    2.233     0  01:24        0.34        10.7      -0.020
  67                   JUNCTION     0.114    2.289     0  01:23        0.28        11.9      -0.039
  68                   JUNCTION     0.114    2.188     0  01:23        0.28        12.2       0.002
  69                   JUNCTION     0.000    2.157     0  01:41           0        12.5       0.004
  70                   JUNCTION     0.000    2.189     0  01:42           0        12.9      -0.034
  71                   JUNCTION     0.114    2.276     0  01:42        0.28        13.5      -0.002
  72                   JUNCTION     0.136    0.730     0  01:25       0.333        3.56      -0.384
  73                   JUNCTION     0.183    0.742     0  01:26       0.451        3.25       0.808
  74                   JUNCTION     0.000    0.708     0  01:36           0         2.8      -0.057
  75                   JUNCTION     0.000    0.767     0  01:36           0        2.79      -0.012
  76                   JUNCTION     0.000    0.924     0  01:35           0        2.81      -0.151
  77                   JUNCTION     0.136    0.887     0  01:34       0.335        2.77      -0.224
  78                   JUNCTION     0.091    0.892     0  01:34       0.224        2.35      -0.421
  79                   JUNCTION     0.000    0.770     0  01:29           0        2.01      -0.285
  80                   JUNCTION     0.000    0.796     0  01:30           0        1.91      -0.274
  81                   JUNCTION     0.000    0.115     0  01:26           0       0.131       2.914
  82                   JUNCTION     0.000    0.127     0  01:26           0       0.171       0.216
  83                   JUNCTION     0.132    0.213     0  01:30       0.325       0.478       0.104
  84                   JUNCTION     0.126    0.229     0  01:30       0.308       0.658      -0.141
  85                   JUNCTION     0.000    0.168     0  01:27           0       0.573      -0.260
  86                   JUNCTION     0.323    0.415     0  01:28       0.793        1.26       0.233
  87                   JUNCTION     0.200    0.572     0  01:29       0.492        1.73       0.549
  88                   JUNCTION     0.000    0.543     0  01:29           0        1.73       0.657
  89                   JUNCTION     0.308    0.308     0  01:30       0.755       0.768       0.323
  90                   JUNCTION     0.119    0.369     0  01:30       0.306        1.04      -0.078
  91                   JUNCTION     0.123    0.490     0  01:30       0.303        1.35       0.851
  92                   JUNCTION     0.239    0.722     0  01:30       0.587         1.9      -0.030
  93                   JUNCTION     0.312    1.399     0  01:25       0.766        6.23      -0.282
  94                   JUNCTION     0.125    2.353     0  01:42       0.307          14       0.049
  95                   JUNCTION     0.457    0.606     0  01:30        1.12        1.56      -0.239
  96                   JUNCTION     0.226    0.822     0  01:30       0.555        2.12       2.357
  97                   JUNCTION     0.000    0.193     0  01:30           0       0.501       0.421
  98                   JUNCTION     0.065    0.747     0  01:30       0.159        2.04      -0.407
  99                   JUNCTION     0.138    0.310     0  01:30       0.338       0.887       0.134
  100                  JUNCTION     0.133    0.221     0  01:30       0.327        0.58       0.111
  101                  JUNCTION     0.000    0.136     0  01:34           0        0.25      -0.474
  102                  JUNCTION     0.088    0.400     0  01:34       0.215        1.62      -0.425
  103                  JUNCTION     0.140    0.298     0  01:25       0.344       0.908       0.231
  104                  JUNCTION     0.000    0.273     0  01:23           0       0.711      -0.995
  105                  JUNCTION     0.000    0.211     0  01:25           0       0.373      -0.069
  106                  JUNCTION     0.116    0.230     0  01:26       0.284       0.583      -0.575
  107                  JUNCTION     0.000    0.191     0  01:26           0        0.14       1.345
  108                  JUNCTION     0.000    0.078     0  01:27           0      0.0942      -0.112
  109                  JUNCTION     0.270    0.404     0  01:28       0.664       0.931      -0.061
  110                  JUNCTION     0.000    0.246     0  01:29           0       0.298      -1.597
  111                  JUNCTION     0.147    0.288     0  01:31       0.361       0.942       0.821
  112                  JUNCTION     0.442    0.500     0  01:29        1.08        1.81       0.136
  113                  JUNCTION     0.076    0.310     0  01:28       0.187       0.904      -0.392
  114                  JUNCTION     0.000    0.221     0  01:28           0       0.732      -0.256
  115                  JUNCTION     0.114    0.410     0  01:23        0.28        1.66      -0.075
  116                  JUNCTION     0.000    0.124     0  01:33           0       0.193      -0.268
  117                  JUNCTION     0.000    0.231     0  01:31           0        0.54      -1.144
  118                  JUNCTION     0.000    0.091     0  01:29           0       0.132       0.883
  119                  JUNCTION     0.000    0.735     0  01:31           0        2.13       2.665
  120                  JUNCTION     0.000    3.350     0  01:35           0        22.6       0.033
  121                  JUNCTION     0.000    3.496     0  01:35           0        22.6      -0.150
  122                  JUNCTION     0.000    3.320     0  01:40           0        20.6      -0.039
  123                  JUNCTION     0.159    1.441     0  01:26       0.408        6.66       0.318
  124                  JUNCTION     0.389    1.923     0  01:38       0.955        9.77       0.024
  125                  JUNCTION     0.000    0.300     0  01:23           0       0.512       1.168
  126                  JUNCTION     0.000    0.277     0  01:24           0       0.616      -0.093
  127                  JUNCTION     0.000    0.286     0  01:31           0       0.693       0.054
  128                  JUNCTION     0.754    0.754     0  01:30        1.85        2.12       0.046
  129                  JUNCTION     0.251    0.611     0  01:23       0.617        2.01       0.067
  130                  JUNCTION     0.154    0.684     0  01:24       0.378        2.19       0.013
  131                  JUNCTION     0.000    0.598     0  01:24           0        2.09       0.058
  132                  JUNCTION     0.139    0.641     0  01:27       0.342        2.38       0.158
  133                  JUNCTION     0.000    0.956     0  01:29           0        4.03      -0.490
  134                  JUNCTION     0.139    0.983     0  01:32        0.34        4.41      -0.014
  135                  JUNCTION     0.114    0.981     0  01:33        0.28        4.69       0.023
  136                  JUNCTION     0.000    0.899     0  01:35           0        4.69       0.028
  137                  JUNCTION     0.136    0.920     0  01:36       0.335        5.04       0.039
  138                  JUNCTION     0.212    1.047     0  01:24        0.52        5.57       0.025
  139                  JUNCTION     0.152    1.142     0  01:24       0.372        5.94       0.297
  140                  JUNCTION     0.136    4.078     0  01:24       0.333        28.9      -0.004
  141                  JUNCTION     0.221    4.732     0  01:34       0.542        31.6       0.276
  142                  JUNCTION     0.114    0.179     0  01:27        0.28        0.39       2.006
  143                  JUNCTION     0.000    0.167     0  01:28           0       0.509      -1.165
  144                  JUNCTION     0.000    0.105     0  01:43           0        0.12      -0.700
  145                  JUNCTION     0.136    0.403     0  01:27       0.333        1.78      -0.124
  146                  JUNCTION     0.000    0.312     0  01:32           0         1.1      -0.520
  147                  JUNCTION     0.114    0.237     0  01:31        0.28       0.504       0.061
  148                  JUNCTION     0.000    0.603     0  01:33           0        2.17      -0.150
  149                  JUNCTION     0.000    0.325     0  01:32           0       0.531      -2.304
  150                  JUNCTION     0.161    0.312     0  01:31       0.396       0.777       0.170
  151                  JUNCTION     0.000    0.317     0  01:28           0       0.894      -0.284
  152                  JUNCTION     0.312    0.496     0  01:26       0.766        2.02       0.405
  153                  JUNCTION     0.000    0.169     0  01:26           0       0.319       0.044
  154                  JUNCTION     0.000    0.165     0  01:26           0       0.298       0.975
  155                  JUNCTION     0.000    0.116     0  01:17           0       0.509       0.076
  156                  JUNCTION     0.176    0.284     0  01:30       0.432       0.777       0.682
  157                  JUNCTION     0.000    0.221     0  01:31           0       0.187      -1.712
  158                  JUNCTION     0.000    0.240     0  01:30           0       0.318      -1.359
  159                  JUNCTION     0.000    0.318     0  01:28           0       0.592       0.954
  160                  JUNCTION     0.259    0.360     0  01:28       0.636        1.29      -0.231
  161                  JUNCTION     0.270    2.024     0  01:39       0.662        10.4       0.065
  162                  JUNCTION     0.114    1.858     0  01:39        0.28        10.7       0.066
  163                  JUNCTION     0.155    1.722     0  01:24       0.379        11.1       0.037
  164                  JUNCTION     0.152    1.751     0  01:40       0.374        11.5       0.032
  165                  JUNCTION     0.246    1.843     0  01:40       0.604        12.2       0.034
[...]
  77                          2.12      2.12      2.13      0.15         0.17
  197                         2.05      2.05      2.09      0.01         0.01
  465                         0.01      0.01      4.57      0.01         0.01
  468                         0.23      0.23      4.49      0.01         0.01
  466                         0.30      0.30      4.52      0.01         0.01
  219                         1.19      1.19      1.24      0.01         0.01
  218                         0.50      0.50      0.70      0.01         0.01
  274                         0.47      0.47      0.55      0.01         0.01
  230                         0.94      0.94      1.42      0.07         0.07
  430                         0.89      0.89      4.49      0.01         0.01
  104                         1.30      1.30      1.57      0.01         0.01
  429                         0.73      0.73      4.61      0.01         0.01
  352                         0.68      0.68      4.60      0.01         0.01
  241                         0.93      0.93      1.16      0.01         0.01
  8                           1.13      1.13      1.26      0.04         0.05
  357                         0.54      0.54      4.57      0.01         0.01
  9                           1.19      1.19      1.22      0.10         0.13
  14                          0.94      0.94      1.17      0.01         0.01
  382                         0.75      0.75      0.93      0.01         0.01
  381                         0.25      0.25      4.53      0.01         0.01
  12                          1.30      1.30      1.46      0.05         0.03
  433                         0.63      0.63      4.57      0.01         0.01
  102                         1.80      2.09      1.81      1.46         1.10
  60                          1.54      1.54      1.64      0.04         0.05
  525                         0.01      0.01      4.37      0.01         0.01
  504                         0.01      0.01      4.37      0.01         0.01
  322                         1.50      1.50      1.57      0.01         0.01
  340                         1.00      1.00      1.05      0.25         0.23
  315                         1.68      1.68      1.70      0.01         0.01
  255                         0.52      0.52      0.71      0.01         0.01
  403                         0.01      0.01      4.30      0.01         0.01
  337                         1.47      1.47      1.62      0.01         0.01
  38                          1.79      1.90      1.79      1.04         0.79
  76                          2.11      2.11      2.12      0.15         0.16
  400                         0.01      0.01      4.17      0.01         0.01
  198                         1.99      1.99      2.05      0.01         0.01
  476                         0.50      0.50      0.79      0.01         0.01
  220                         1.13      1.13      1.19      0.01         0.01
  481                         0.34      0.34      4.46      0.01         0.01
  385                         1.06      1.06      4.50      0.01         0.01
  279                         1.11      1.11      1.15      0.02         0.01
  240                         0.93      0.93      1.13      0.01         0.01
  353                         0.77      0.77      4.60      0.01         0.01
  239                         0.93      0.93      1.08      0.01         0.01
  10                          1.08      1.08      1.19      0.03         0.01
  355                         0.76      0.76      4.51      0.02         0.01
  11                          1.07      1.07      1.29      0.01         0.01
  69                          1.37      1.37      1.54      0.01         0.01
  61                          1.40      1.40      1.54      0.16         0.15
  103                         2.05      2.05      2.09      1.13         1.06
  522                         0.01      0.01      4.33      0.01         0.01
  323                         1.46      1.46      1.50      0.01         0.01
  338                         0.96      0.99      1.00      0.40         0.32
  314                         1.66      1.66      1.68      0.01         0.01
  256                         0.53      0.53      0.75      0.01         0.01
  520                         0.09      0.09      4.50      0.01         0.01
  401                         0.01      0.01      4.50      0.01         0.01
  37                          1.90      1.94      1.90      0.87         0.75
  336                         1.43      1.48      1.47      0.33         0.20
  75                          2.09      2.09      2.11      0.08         0.08
  398                         0.01      0.01      4.19      0.01         0.01
  199                         1.93      1.93      1.99      0.01         0.01
  229                         0.98      0.98      1.13      0.01         0.01
  221                         0.60      0.60      0.81      0.01         0.01
  238                         0.91      0.91      1.08      0.01         0.01
  354                         0.77      0.77      4.56      0.01         0.01
  388                         0.83      0.83      4.58      0.01         0.01
  384                         0.88      0.88      1.13      0.01         0.01
  356                         0.76      0.76      4.61      0.01         0.01
  237                         1.13      1.13      1.29      0.01         0.01
  67                          1.27      1.27      1.37      0.01         0.01
  431                         1.16      1.16      1.61      0.01         0.01
  63                          1.91      1.91      2.05      0.06         0.08
  62                          1.86      1.86      1.98      0.01         0.01
  521                         0.09      0.09      4.36      0.01         0.01
  503                         0.12      0.12      4.31      0.01         0.01
  324                         1.38      1.38      1.46      0.01         0.02
  523                         0.01      0.01      4.56      0.01         0.01
  506                         0.01      0.01      4.30      0.01         0.01
  312                         1.64      1.64      1.66      0.01         0.01
  258                         0.56      0.56      0.74      0.01         0.01
  518                         0.17      0.17      4.55      0.01         0.01
  399                         0.01      0.01      4.55      0.01         0.01
  36                          1.93      1.96      1.94      0.71         0.62
  335                         1.47      1.63      1.48      0.96         0.71
  74                          2.08      2.08      2.09      0.10         0.11
  396                         0.01      0.01      4.21      0.01         0.01
  222                         1.87      1.87      1.93      0.01         0.01
  228                         0.75      0.75      0.98      0.02         0.01
  236                         1.13      1.13      1.27      0.01         0.01
  66                          1.45      1.45      1.80      0.01         0.01
  65                          1.40      1.40      1.82      0.01         0.01
  64                          1.78      1.80      1.91      0.18         0.12
  517                         0.20      0.20      4.42      0.01         0.01
  325                         1.35      1.35      1.38      0.07         0.04
  313                         1.62      1.62      1.64      0.01         0.01
  259                         0.56      0.56      0.77      0.01         0.01
  516                         0.20      0.20      4.59      0.01         0.01
  397                         0.01      0.01      4.59      0.01         0.01
  34                          1.95      1.95      1.96      0.46         0.44
  334                         1.48      1.48      1.63      0.01         0.01
  73                          2.06      2.06      2.08      0.05         0.04
  394                         0.01      0.01      4.21      0.01         0.01
  225                         1.81      1.81      1.87      0.01         0.01
  480                         0.01      0.01      4.47      0.01         0.01
  389                         0.83      0.83      4.53      0.01         0.01
  234                         1.21      1.21      1.45      0.01         0.01
  386                         1.00      1.00      4.61      0.01         0.01
  1                           1.42      1.42      1.64      0.17         0.19
  387                         0.92      0.92      4.51      0.01         0.01
  515                         0.25      0.25      4.43      0.01         0.01
  502                         0.18      0.18      4.38      0.01         0.01
  326                         1.32      1.32      1.35      0.01         0.01
  311                         1.61      1.61      1.62      0.01         0.01
  260                         0.58      0.58      0.78      0.01         0.01
  514                         0.25      0.25      4.61      0.01         0.01
  395                         0.01      0.01      4.61      0.01         0.01
  33                          1.89      1.89      1.95      0.05         0.05
  333                         1.42      1.42      1.48      0.05         0.05
  72                          2.04      2.04      2.06      0.01         0.03
  478                         0.36      0.60      0.69      0.34         0.05
  392                         0.01      0.01      4.22      0.01         0.01
  226                         1.75      1.75      1.81      0.01         0.01
  513                         0.29      0.29      4.44      0.01         0.01
  327                         1.29      1.29      1.32      0.01         0.01
  507                         0.19      0.19      4.36      0.01         0.01
  310                         1.59      1.59      1.61      0.01         0.01
  261                         0.58      0.58      0.79      0.01         0.01
  512                         0.29      0.29      4.63      0.01         0.01
  393                         0.01      0.01      4.63      0.01         0.01
  32                          1.76      1.76      1.89      0.01         0.01
  332                         1.32      1.32      1.42      0.01         0.01
  71                          2.02      2.02      2.04      0.01         0.04
  227                         1.57      1.57      1.75      0.01         0.01
  511                         0.29      0.29      4.44      0.01         0.01
  501                         0.29      0.29      4.43      0.01         0.01
  329                         1.26      1.26      1.29      0.01         0.01
  309                         1.57      1.57      1.59      0.10         0.10
  262                         0.60      0.60      0.80      0.01         0.01
  510                         0.29      0.29      4.62      0.01         0.01
  31                          1.71      1.71      1.76      0.01         0.01
  331                         1.17      1.17      1.32      0.01         0.01
  479                         0.01      0.01      4.29      0.01         0.01
  70                          2.00      2.00      2.02      0.04         0.04
  390                         0.01      0.01      4.26      0.01         0.01
  273                         0.01      0.01      1.29      0.01         0.01
  509                         0.30      0.30      4.45      0.01         0.01
  500                         0.30      0.30      4.43      0.01         0.01
  299                         1.23      1.23      1.26      0.02         0.01
  508                         0.25      0.25      4.39      0.01         0.01
  308                         1.55      1.55      1.57      0.07         0.04
  263                         0.63      0.63      0.82      0.01         0.01
  391                         0.01      0.01      4.59      0.01         0.01
  30                          1.65      1.65      1.71      0.01         0.01
  330                         1.03      1.03      1.17      0.01         0.01
  29                          1.93      1.93      2.00      0.05         0.05
  495                         0.32      0.32      4.46      0.01         0.01
  486                         0.32      0.32      4.43      0.01         0.01
  298                         1.22      1.39      1.23      0.30         0.07
  307                         1.53      1.53      1.55      0.06         0.03
  264                         0.68      0.77      0.84      0.19         0.01
  300                         1.21      1.21      1.65      0.01         0.01
  496                         0.32      0.32      4.56      0.01         0.01
  372                         0.31      0.31      4.36      0.01         0.01
  303                         1.87      1.87      1.93      0.01         0.01
  497                         0.39      0.39      4.56      0.01         0.01
  487                         0.35      0.35      4.53      0.01         0.01
  297                         1.33      1.37      1.39      0.31         0.23
  282                         1.51      1.51      1.53      0.01         0.01
  265                         0.73      1.03      0.83      0.52         0.19
  301                         1.10      1.10      1.21      0.01         0.01
  302                         0.77      1.19      0.80      0.76         0.26
  304                         1.82      1.82      1.87      0.03         0.02
  272                         0.61      0.61      1.31      0.01         0.01
  498                         0.60      0.60      4.70      0.01         0.01
  488                         0.37      0.37      4.59      0.01         0.01
  283                         1.47      1.47      1.51      0.01         0.01
  281                         1.47      1.49      1.50      0.17         0.06
  499                         0.60      0.60      4.58      0.01         0.01
  296                         1.01      1.16      1.14      0.23         0.05
  305                         1.77      1.77      1.82      0.01         0.01
  113                         1.47      1.48      1.49      0.18         0.11
  285                         1.44      1.44      1.47      0.01         0.01
  293                         1.75      1.75      1.77      0.33         0.17
  294                         1.06      1.06      1.14      0.01         0.01
  494                         0.60      0.60      4.58      0.01         0.01
  489                         0.42      0.42      4.47      0.01         0.01
  101                         1.45      1.47      1.48      0.22         0.13
  286                         1.35      1.35      1.44      0.01         0.01
  280                         0.97      0.97      1.09      0.01         0.01
  493                         0.47      0.47      4.40      0.01         0.01
  287                         0.87      0.87      1.06      0.01         0.01
  288                         1.04      1.27      1.20      0.30         0.03
  292                         1.71      1.73      1.75      0.22         0.12
  90                          1.43      1.48      1.47      0.24         0.15
  485                         0.39      0.39      4.40      0.01         0.01
  484                         0.46      0.46      4.40      0.01         0.01
  124                         0.79      0.83      0.87      0.06         0.01
  490                         0.54      0.54      4.37      0.01         0.01
  278                         1.27      1.27      1.35      0.01         0.01
  491                         0.63      0.63      4.39      0.01         0.01
  290                         1.67      1.67      1.73      0.06         0.07
  271                         0.81      0.81      1.13      0.01         0.01
  289                         1.46      1.57      1.50      0.25         0.08
  492                         0.69      0.69      4.57      0.01         0.01
  440                         0.83      0.83      1.01      0.01         0.01
  79                          1.39      1.39      1.48      0.01         0.01
  268                         1.24      1.24      1.27      0.01         0.01
  135                         0.85      0.85      1.04      0.01         0.01
  224                         1.50      1.55      1.57      0.34         0.24
  317                         1.22      1.22      1.33      0.03         0.01
  291                         1.61      1.61      1.67      0.01         0.01
  68                          1.35      1.35      1.39      0.04         0.03
  410                         0.54      0.54      4.39      0.01         0.01
  257                         1.20      1.34      1.24      0.37         0.16
  146                         0.81      0.81      0.91      0.01         0.01
  482                         0.84      0.84      4.54      0.01         0.01
  212                         1.53      1.66      1.55      0.35         0.17
  190                         1.14      1.14      1.33      0.03         0.03
  328                         1.57      1.57      1.61      0.01         0.01
  519                         0.78      0.78      4.43      0.01         0.01
  477                         0.80      0.80      4.43      0.01         0.01
  306                         1.13      1.13      1.22      0.01         0.01
  447                         0.81      0.81      1.06      0.01         0.01
  57                          1.32      1.32      1.35      0.19         0.13
  246                         1.30      1.30      1.34      0.19         0.18
  157                         0.93      0.93      1.12      0.01         0.01
  24                          1.03      1.08      1.14      0.17         0.10
  201                         1.44      1.44      1.66      0.01         0.01
  339                         1.54      1.54      1.57      0.01         0.01
  295                         1.09      1.09      1.13      0.05         0.01
  2                           0.88      1.05      1.01      0.22         0.04
  46                          1.26      1.31      1.32      0.46         0.40
  383                         0.61      0.61      4.45      0.01         0.01
  235                         1.28      1.38      1.30      0.61         0.44
  168                         0.98      1.00      1.08      0.12         0.09
  13                          1.25      1.25      1.44      0.03         0.01
  112                         1.48      1.59      1.54      0.28         0.14
  266                         0.88      0.88      1.01      0.01         0.01
  284                         1.06      1.06      1.09      0.07         0.01
  454                         1.00      1.00      1.18      0.01         0.01
  35                          1.19      1.20      1.31      0.41         0.38
  179                         1.15      1.15      1.38      0.05         0.06
  367                         1.08      1.08      1.25      0.03         0.01
  350                         1.05      1.05      1.25      0.01         0.01
  483                         0.83      0.83      4.47      0.01         0.01
  233                         1.24      1.24      1.59      0.01         0.02
  232                         0.93      0.93      1.07      0.06         0.02
  267                         0.90      0.98      1.02      0.16         0.02
  223                         1.02      1.24      1.06      0.50         0.21
  369                         1.08      1.08      1.20      0.02         0.03
  373                         0.92      0.92      4.66      0.01         0.01
  270                         0.95      0.95      1.24      0.01         0.01
  269                         1.07      1.07      1.24      0.22         0.23
  

  Analysis begun on:  Wed Dec 22 20:05:32 2021
  Analysis ended on:  Wed Dec 22 20:05:33 2021
  Total elapsed time: 00:00:01