
  EPA STORM WATER MANAGEMENT MODEL - VERSION 5.1 (Build 5.3.0.dev0)
  --------------------------------------------------------------

  
  *********************************************************
  NOTE: The summary statistics displayed in this report are
  based on results found at every computational time step,  
  not just on results from each reporting time step.
  *********************************************************
  
  ****************
  Analysis Options
  ****************
  Flow Units ............... CMS
  Process Models:
    Rainfall/Runoff ........ YES
    RDII ................... NO
    Snowmelt ............... NO
    Groundwater ............ NO
    Flow Routing ........... YES
    Ponding Allowed ........ YES
    Water Quality .......... NO
  Infiltration Method ...... HORTON
  Flow Routing Method ...... DYNWAVE
  Surcharge Method ......... EXTRAN
  Starting Date ............ 12/15/2017 00:00:00
  Ending Date .............. 12/15/2017 06:00:00
  Antecedent Dry Days ...... 0.0
  Report Time Step ......... 00:01:00
  Wet Time Step ............ 00:01:00
  Dry Time Step ............ 06:00:00
  Routing Time Step ........ 30.00 sec
  Variable Time Step ....... YES
  Maximum Trials ........... 8
  Number of Threads ........ 1
  Head Tolerance ........... 0.001500 m
  
  
  **************************        Volume         Depth
  Runoff Quantity Continuity     hectare-m            mm
  **************************     ---------       -------
  Total Precipitation ......        11.436        23.286
  Evaporation Loss .........         0.000         0.000
  Infiltration Loss ........         1.331         2.710
  Surface Runoff ...........         8.976        18.277
  Final Storage ............         1.130         2.300
  Continuity Error (%) .....        -0.011
  
  
  **************************        Volume        Volume
  Flow Routing Continuity        hectare-m      10^6 ltr
  **************************     ---------     ---------
  Dry Weather Inflow .......         0.000         0.000
  Wet Weather Inflow .......         8.976        89.765
  Groundwater Inflow .......         0.000         0.000
  RDII Inflow ..............         0.000         0.000
  External Inflow ..........         0.000         0.000
  External Outflow .........         8.922        89.225
  Flooding Loss ............         0.000         0.000
  Evaporation Loss .........         0.000         0.000
  Exfiltration Loss ........         0.000         0.000
  Initial Stored Volume ....         0.000         0.000
  Final Stored Volume ......         0.047         0.472
  Continuity Error (%) .....         0.075
  
  
  *************************
  Highest Continuity Errors
  *************************
  Node 302 (5.44%)
  Node 227 (5.38%)
  Node 272 (-3.37%)
  Node 43 (3.19%)
  Node 50 (3.14%)
  
  
  ***************************
  Time-Step Critical Elements
  ***************************
  Link 26 (40.17%)
  Link 223 (11.34%)
  Link 163 (9.53%)
  Link 365 (1.86%)
  Link 342 (1.49%)
  
  
  ********************************
  Highest Flow Instability Indexes
  ********************************
  Link 244 (18)
  Link 343 (16)
  Link 31 (16)
  Link 316 (15)
  Link 342 (14)
  
  
  *************************
  Routing Time Step Summary
  *************************
  Minimum Time Step           :     0.50 sec
  Average Time Step           :    10.04 sec
  Maximum Time Step           :    30.00 sec
  Percent in Steady State     :     0.61
  Average Iterations per Step :     4.80
  Percent Not Converging      :    36.72
  
  
  ***************************
  Subcatchment Runoff Summary
  ***************************
  
  ------------------------------------------------------------------------------------------------------------------------------
                            Total      Total      Total      Total     Imperv       Perv      Total       Total     Peak  Runoff
                           Precip      Runon       Evap      Infil     Runoff     Runoff     Runoff      Runoff   Runoff   Coeff
  Subcatchment                 mm         mm         mm         mm         mm         mm         mm    10^6 ltr      CMS
  ------------------------------------------------------------------------------------------------------------------------------
  532                       23.29       0.00       0.00       2.46      17.57       1.12      18.69        0.39     0.16   0.803
  533                       23.29       0.00       0.00       2.46      17.57       1.12      18.69        0.27     0.11   0.803
  534                       23.29       0.00       0.00       2.46      17.57       1.12      18.69        0.31     0.12   0.803
  535                       23.29       0.00       0.00       2.46      17.57       1.12      18.69        0.37     0.15   0.803
  536                       23.29       0.00       0.00       2.46      17.57       1.12      18.69        0.35     0.14   0.803
  537                       23.29       0.00       0.00       2.46      17.57       1.12      18.69        0.34     0.14   0.803
  538                       23.29       0.00       0.00       2.46      17.57       1.12      18.69        0.33     0.14   0.803
  539                       23.29       0.00       0.00       2.46      17.57       1.12      18.69        0.32     0.13   0.803
  540                       23.29       0.00       0.00       2.46      17.57       1.12      18.69        0.60     0.24   0.803
  541                       23.29       0.00       0.00       2.46      17.57       1.12      18.69        0.58     0.24   0.803
  542                       23.29       0.00       0.00       2.46      17.57       1.12      18.69        0.28     0.12   0.803
  543                       23.29       0.00       0.00       2.46      17.57       1.12      18.69        0.47     0.19   0.803
  544                       23.29       0.00       0.00       2.46      17.57       1.12      18.69        1.08     0.44   0.803
  545                       23.29       0.00       0.00       2.46      17.57       1.12      18.69        0.44     0.18   0.803
  546                       23.29       0.00       0.00       2.46      17.57       1.12      18.69        0.43     0.18   0.803
  547                       23.29       0.00       0.00       2.46      17.57       1.12      18.69        0.38     0.15   0.803
  548                       23.29       0.00       0.00       2.46      17.57       1.12      18.69        0.31     0.12   0.803
  549                       23.29       0.00       0.00       2.46      17.57       1.12      18.69        0.43     0.18   0.803
  550                       23.29       0.00       0.00       2.46      17.57       1.12      18.69        0.44     0.18   0.803
  551                       23.29       0.00       0.00       2.46      17.57       1.12      18.69        0.21     0.09   0.803
  552                       23.29       0.00       0.00       2.46      17.57       1.12      18.69        0.22     0.09   0.803
  553                       23.29       0.00       0.00       2.46      17.57       1.12      18.69        0.21     0.09   0.803
  554                       23.29       0.00       0.00       2.46      17.57       1.12      18.69        0.21     0.09   0.803
  555                       23.29       0.00       0.00       2.46      17.57       1.12      18.69        0.21     0.09   0.803
  556                       23.29       0.00       0.00       2.46      17.57       1.12      18.69        0.21     0.09   0.803
  557                       23.29       0.00       0.00       2.46      17.57       1.12      18.69        0.21     0.09   0.803
  558                       23.29       0.00       0.00       2.46      17.57       1.12      18.69        0.43     0.17   0.803
  559                       23.29       0.00       0.00       2.46      17.57       1.12      18.69        0.22     0.09   0.803
  560                       23.29       0.00       0.00       2.46      17.57       1.12      18.69        0.41     0.17   0.803
  561                       23.29       0.00       0.00       2.46      17.57       1.12      18.69        0.43     0.18   0.803
  562                       23.29       0.00       0.00       2.46      17.57       1.12      18.69        0.37     0.15   0.803
  563                       23.29       0.00       0.00       2.46      17.57       1.12      18.69        0.67     0.27   0.803
  564                       23.29       0.00       0.00       2.46      17.57       1.12      18.69        0.63     0.26   0.803
  565                       23.29       0.00       0.00       2.46      17.57       1.12      18.69        0.60     0.25   0.803
  566                       23.29       0.00       0.00       2.46      17.57       1.12      18.69        0.53     0.22   0.803
  567                       23.29       0.00       0.00       2.46      17.57       1.12      18.69        0.48     0.19   0.803
  568                       23.29       0.00       0.00       2.46      17.57       1.12      18.69        0.43     0.18   0.803
  569                       23.29       0.00       0.00       2.46      17.57       1.12      18.69        0.44     0.18   0.803
  570                       23.29       0.00       0.00       2.46      17.57       1.12      18.69        0.38     0.15   0.803
  571                       23.29       0.00       0.00       2.46      17.57       1.12      18.69        0.66     0.27   0.803
  572                       23.29       0.00       0.00       2.46      17.57       1.12      18.69        0.31     0.12   0.803
  573                       23.29       0.00       0.00       2.46      17.57       1.12      18.69        0.30     0.12   0.803
  574                       23.29       0.00       0.00       2.46      17.57       1.12      18.69        0.29     0.12   0.803
  575                       23.29       0.00       0.00       2.46      17.57       1.12      18.69        0.27     0.11   0.803
  576                       23.29       0.00       0.00       2.46      17.57       1.12      18.69        0.26     0.11   0.803
  577                       23.29       0.00       0.00       2.46      17.57       1.12      18.69        0.24     0.10   0.803
  578                       23.29       0.00       0.00       2.46      17.57       1.12      18.69        0.24     0.10   0.803
  579                       23.29       0.00       0.00       2.46      17.57       1.12      18.69        0.45     0.18   0.803
  580                       23.29       0.00       0.00       2.46      17.57       1.12      18.69        0.21     0.08   0.803
  581                       23.29       0.00       0.00       2.46      17.57       1.12      18.69        0.37     0.15   0.803
  582                       23.29       0.00       0.00       2.46      17.57       1.12      18.69        0.33     0.14   0.803
  583                       23.29       0.00       0.00       2.46      17.57       1.12      18.69        0.57     0.23   0.803
  584                       23.29       0.00       0.00       2.46      17.57       1.12      18.69        0.56     0.23   0.803
  585                       23.29       0.00       0.00       2.46      17.57       1.12      18.69        0.49     0.20   0.803
  586                       23.29       0.00       0.00       2.46      17.57       1.12      18.69        0.36     0.15   0.803
  587                       23.29       0.00       0.00       2.46      17.57       1.12      18.69        0.35     0.14   0.803
  588                       23.29       0.00       0.00       2.46      17.57       1.12      18.69        0.36     0.14   0.803
  589                       23.29       0.00       0.00       2.46      17.57       1.12      18.69        0.35     0.14   0.803
  590                       23.29       0.00       0.00       2.46      17.57       1.12      18.69        0.35     0.14   0.803
  591                       23.29       0.00       0.00       2.46      17.57       1.12      18.69        0.36     0.15   0.803
  592                       23.29       0.00       0.00       2.46      17.57       1.12      18.69        0.36     0.15   0.803
  593                       23.29       0.00       0.00       2.46      17.57       1.12      18.69        0.37     0.15   0.803
  594                       23.29       0.00       0.00       2.46      17.57       1.12      18.69        0.36     0.15   0.803
  595                       23.29       0.00       0.00       2.46      17.57       1.12      18.69        0.37     0.15   0.803
  596                       23.29       0.00       0.00       2.46      17.57       1.12      18.69        0.37     0.15   0.803
  597                       23.29       0.00       0.00       2.46      17.57       1.12      18.69        0.37     0.15   0.803
  598                       23.29       0.00       0.00       2.46      17.57       1.12      18.69        0.38     0.16   0.803
  599                       23.29       0.00       0.00       2.46      17.57       1.12      18.69        0.39     0.16   0.803
  600                       23.29       0.00       0.00       2.46      17.57       1.12      18.69        0.38     0.16   0.803
  601                       23.29       0.00       0.00       2.46      17.57       1.12      18.69        0.40     0.16   0.803
  602                       23.29       0.00       0.00       2.46      17.57       1.12      18.69        0.39     0.16   0.803
  603                       23.29       0.00       0.00       2.46      17.57       1.12      18.69        0.40     0.16   0.803
  604                       23.29       0.00       0.00       2.46      17.57       1.12      18.69        0.41     0.17   0.803
  605                       23.29       0.00       0.00       2.46      17.57       1.12      18.69        0.38     0.15   0.803
  606                       23.29       0.00       0.00       2.46      17.57       1.12      18.69        0.39     0.16   0.803
  607                       23.29       0.00       0.00       2.46      17.57       1.12      18.69        0.40     0.16   0.803
  608                       23.29       0.00       0.00       2.46      17.57       1.12      18.69        0.51     0.21   0.803
  609                       23.29       0.00       0.00       2.46      17.57       1.12      18.69        0.52     0.21   0.803
  610                       23.29       0.00       0.00       2.46      17.57       1.12      18.69        0.40     0.16   0.803
  611                       23.29       0.00       0.00       2.46      17.57       1.12      18.69        0.40     0.16   0.803
  612                       23.29       0.00       0.00       2.46      17.57       1.12      18.69        0.43     0.18   0.803
  613                       23.29       0.00       0.00       2.46      17.57       1.12      18.69        0.34     0.14   0.803
  614                       23.29       0.00       0.00       2.46      17.57       1.12      18.69        0.54     0.22   0.803
  615                       23.29       0.00       0.00       2.46      17.57       1.12      18.69        0.67     0.27   0.803
  616                       23.29       0.00       0.00       2.46      17.57       1.12      18.69        0.34     0.14   0.803
  617                       23.29       0.00       0.00       2.46      17.57       1.12      18.69        0.33     0.14   0.803
  618                       23.29       0.00       0.00       2.46      17.57       1.12      18.69        0.34     0.14   0.803
  619                       23.29       0.00       0.00       2.46      17.57       1.12      18.69        0.34     0.14   0.803
  620                       23.29       0.00       0.00       2.46      17.57       1.12      18.69        0.33     0.14   0.803
  621                       23.29       0.00       0.00       2.46      17.57       1.12      18.69        0.34     0.14   0.803
  622                       23.29       0.00       0.00       2.46      17.57       1.12      18.69        0.33     0.14   0.803
  623                       23.29       0.00       0.00       2.46      17.57       1.12      18.69        0.34     0.14   0.803
  624                       23.29       0.00       0.00       2.46      17.57       1.12      18.69        0.34     0.14   0.803
  625                       23.29       0.00       0.00       2.46      17.57       1.12      18.69        0.34     0.14   0.803
  626                       23.29       0.00       0.00       2.46      17.57       1.12      18.69        0.34     0.14   0.803
  627                       23.29       0.00       0.00       2.46      17.57       1.12      18.69        0.34     0.14   0.803
  628                       23.29       0.00       0.00       2.46      17.57       1.12      18.69        0.34     0.14   0.803
  629                       23.29       0.00       0.00       2.46      17.57       1.12      18.69        0.35     0.14   0.803
  630                       23.29       0.00       0.00       2.46      17.57       1.12      18.69        0.33     0.13   0.803
  631                       23.29       0.00       0.00       2.46      17.57       1.12      18.69        0.34     0.14   0.803
  632                       23.29       0.00       0.00       2.46      17.57       1.12      18.69        0.34     0.14   0.803
  633                       23.29       0.00       0.00       2.46      17.57       1.12      18.69        0.36     0.15   0.803
  634                       23.29       0.00       0.00       2.46      17.57       1.12      18.69        0.33     0.14   0.803
  635                       23.29       0.00       0.00       2.46      17.57       1.12      18.69        0.33     0.14   0.803
  636                       23.29       0.00       0.00       2.46      17.57       1.12      18.69        0.32     0.13   0.803
  637                       23.29       0.00       0.00       2.46      17.57       1.12      18.69        0.36     0.15   0.803
  638                       23.29       0.00       0.00       2.46      17.57       1.12      18.69        0.54     0.22   0.803
  639                       23.29       0.00       0.00       2.46      17.57       1.12      18.69        0.42     0.17   0.803
  640                       23.29       0.00       0.00       2.46      17.57       1.12      18.69        0.34     0.14   0.803
  641                       23.29       0.00       0.00       2.46      17.57       1.12      18.69        0.59     0.24   0.803
  642                       23.29       0.00       0.00       2.46      17.57       1.12      18.69        0.33     0.13   0.803
  643                       23.29       0.00       0.00       2.46      17.57       1.12      18.69        0.33     0.14   0.803
  644                       23.29       0.00       0.00       2.46      17.57       1.12      18.69        0.33     0.14   0.803
  645                       23.29       0.00       0.00       2.46      17.57       1.12      18.69        0.33     0.13   0.803
  646                       23.29       0.00       0.00       2.46      17.57       1.12      18.69        0.33     0.13   0.803
  647                       23.29       0.00       0.00       2.46      17.57       1.12      18.69        0.33     0.13   0.803
  648                       23.29       0.00       0.00       2.46      17.57       1.12      18.69        0.33     0.13   0.803
  649                       23.29       0.00       0.00       2.46      17.57       1.12      18.69        0.33     0.13   0.803
  650                       23.29       0.00       0.00       2.46      17.57       1.12      18.69        0.32     0.13   0.803
  651                       23.29       0.00       0.00       2.46      17.57       1.12      18.69        0.33     0.13   0.803
  652                       23.29       0.00       0.00       2.46      17.57       1.12      18.69        0.33     0.13   0.803
  653                       23.29       0.00       0.00       2.46      17.57       1.12      18.69        0.33     0.13   0.803
  654                       23.29       0.00       0.00       2.46      17.57       1.12      18.69        0.33     0.13   0.803
  655                       23.29       0.00       0.00       2.46      17.57       1.12      18.69        0.33     0.13   0.803
  656                       23.29       0.00       0.00       2.46      17.57       1.12      18.69        0.33     0.13   0.803
  657                       23.29       0.00       0.00       2.46      17.57       1.12      18.69        0.33     0.13   0.803
  658                       23.29       0.00       0.00       2.46      17.57       1.12      18.69        0.33     0.13   0.803
  659                       23.29       0.00       0.00       2.46      17.57       1.12      18.69        0.33     0.13   0.803
  660                       23.29       0.00       0.00       2.46      17.57       1.12      18.69        0.33     0.13   0.803
  661                       23.29       0.00       0.00       2.46      17.57       1.12      18.69        0.33     0.14   0.803
  662                       23.29       0.00       0.00       2.46      17.57       1.12      18.69        0.50     0.20   0.803
  663                       23.29       0.00       0.00       2.46      17.57       1.12      18.69        0.33     0.14   0.803
  664                       23.29       0.00       0.00       2.46      17.57       1.12      18.69        1.57     0.64   0.803
  665                       23.29       0.00       0.00       2.46      17.57       1.12      18.69        1.42     0.58   0.803
  666                       23.29       0.00       0.00       2.46      17.57       1.12      18.69        1.12     0.46   0.803
  667                       23.29       0.00       0.00       2.46      17.57       1.12      18.69        0.60     0.24   0.803
  668                       23.29       0.00       0.00       2.46      17.57       1.12      18.69        0.49     0.20   0.803
  669                       23.29       0.00       0.00       2.46      17.57       1.12      18.69        0.50     0.20   0.803
  670                       23.29       0.00       0.00       2.46      17.57       1.12      18.69        0.49     0.20   0.803
  671                       23.29       0.00       0.00       2.46      17.57       1.12      18.69        0.49     0.20   0.803
  672                       23.29       0.00       0.00       2.46      17.57       1.12      18.69        0.75     0.30   0.803
  673                       23.29       0.00       0.00       2.46      17.57       1.12      18.69        0.64     0.26   0.803
  674                       23.29       0.00       0.00       2.46      17.57       1.12      18.69        0.93     0.38   0.803
  675                       23.29       0.00       0.00       2.46      17.57       1.12      18.69        0.88     0.36   0.803
  676                       23.29       0.00       0.00       2.46      17.57       1.12      18.69        0.85     0.35   0.803
  677                       23.29       0.00       0.00       2.46      17.57       1.12      18.69        0.75     0.30   0.803
  678                       23.29       0.00       0.00       2.46      17.57       1.12      18.69        0.77     0.31   0.803
  679                       23.29       0.00       0.00       2.46      17.57       1.12      18.69        0.66     0.27   0.803
  680                       23.29       0.00       0.00       2.46      17.57       1.12      18.69        0.28     0.11   0.803
  681                       23.29       0.00       0.00       2.46      17.57       1.12      18.69        0.50     0.21   0.803
  682                       23.29       0.00       0.00       2.46      17.57       1.12      18.69        0.41     0.17   0.803
  683                       23.29       0.00       0.00       2.46      17.57       1.12      18.69        0.41     0.17   0.803
  684                       23.29       0.00       0.00       2.46      17.57       1.12      18.69        0.66     0.27   0.803
  685                       23.29       0.00       0.00       2.46      17.57       1.12      18.69        0.63     0.26   0.803
  686                       23.29       0.00       0.00       2.46      17.57       1.12      18.69        0.80     0.32   0.803
  687                       23.29       0.00       0.00       9.86       4.43       2.50       6.93        1.25     0.44   0.297
  688                       23.29       0.00       0.00       2.46      17.57       1.12      18.69        0.37     0.15   0.803
  689                       23.29       0.00       0.00       2.46      17.57       1.12      18.69        0.35     0.14   0.803
  690                       23.29       0.00       0.00       2.46      17.57       1.12      18.69        0.87     0.35   0.803
  691                       23.29       0.00       0.00       2.46      17.57       1.12      18.69        1.11     0.45   0.803
  692                       23.29       0.00       0.00       2.46      17.57       1.12      18.69        0.62     0.25   0.803
  693                       23.29       0.00       0.00       2.46      17.57       1.12      18.69        0.63     0.26   0.803
  694                       23.29       0.00       0.00       2.46      17.57       1.12      18.69        1.14     0.46   0.803
  695                       23.29       0.00       0.00       2.46      17.57       1.12      18.69        0.25     0.10   0.803
  696                       23.29       0.00       0.00       2.46      17.57       1.12      18.69        0.34     0.14   0.803
  697                       23.29       0.00       0.00       2.46      17.57       1.12      18.69        0.40     0.16   0.803
  698                       23.29       0.00       0.00       2.46      17.57       1.12      18.69        0.69     0.28   0.803
  699                       23.29       0.00       0.00       2.46      17.57       1.12      18.69        0.54     0.22   0.803
  700                       23.29       0.00       0.00       2.46      17.57       1.12      18.69        0.68     0.28   0.803
  701                       23.29       0.00       0.00       2.46      17.57       1.12      18.69        0.51     0.21   0.803
  702                       23.29       0.00       0.00       2.46      17.57       1.12      18.69        0.31     0.13   0.803
  703                       23.29       0.00       0.00       2.46      17.57       1.12      18.69        0.49     0.20   0.803
  704                       23.29       0.00       0.00       2.46      17.57       1.12      18.69        0.50     0.21   0.803
  705                       23.29       0.00       0.00       2.46      17.57       1.12      18.69        0.27     0.11   0.803
  706                       23.29       0.00       0.00       2.46      17.57       1.12      18.69        0.22     0.09   0.803
  707                       23.29       0.00       0.00       2.46      17.57       1.12      18.69        0.44     0.18   0.803
  708                       23.29       0.00       0.00       2.46      17.57       1.12      18.69        0.61     0.25   0.803
  709                       23.29       0.00       0.00       2.46      17.57       1.12      18.69        0.29     0.12   0.803
  710                       23.29       0.00       0.00       2.46      17.57       1.12      18.69        0.19     0.08   0.803
  711                       23.29       0.00       0.00       2.46      17.57       1.12      18.69        0.16     0.06   0.803
  712                       23.29       0.00       0.00       2.46      17.57       1.12      18.69        0.46     0.19   0.803
  713                       23.29       0.00       0.00       2.46      17.57       1.12      18.69        0.19     0.08   0.803
  714                       23.29       0.00       0.00       2.46      17.57       1.12      18.69        0.19     0.08   0.803
  715                       23.29       0.00       0.00       2.46      17.57       1.12      18.69        0.19     0.08   0.803
  716                       23.29       0.00       0.00       2.46      17.57       1.12      18.69        0.19     0.08   0.803
  717                       23.29       0.00       0.00       2.46      17.57       1.12      18.69        0.19     0.08   0.803
  718                       23.29       0.00       0.00       2.46      17.57       1.12      18.69        0.28     0.11   0.803
  719                       23.29       0.00       0.00       2.46      17.57       1.12      18.69        0.28     0.11   0.803
  720                       23.29       0.00       0.00       2.46      17.57       1.12      18.69        0.28     0.11   0.803
  721                       23.29       0.00       0.00       2.46      17.57       1.12      18.69        0.28     0.11   0.803
  722                       23.29       0.00       0.00       2.46      17.57       1.12      18.69        0.28     0.11   0.803
  723                       23.29       0.00       0.00       2.46      17.57       1.12      18.69        0.28     0.11   0.803
  724                       23.29       0.00       0.00       2.46      17.57       1.12      18.69        0.28     0.11   0.803
  725                       23.29       0.00       0.00       2.46      17.57       1.12      18.69        0.28     0.11   0.803
  726                       23.29       0.00       0.00       2.46      17.57       1.12      18.69        0.28     0.11   0.803
  727                       23.29       0.00       0.00       2.46      17.57       1.12      18.69        0.28     0.11   0.803
  728                       23.29       0.00       0.00       2.46      17.57       1.12      18.69        0.28     0.11   0.803
  729                       23.29       0.00       0.00       2.46      17.57       1.12      18.69        0.28     0.11   0.803
  730                       23.29       0.00       0.00       2.46      17.57       1.12      18.69        0.28     0.11   0.803
  731                       23.29       0.00       0.00       2.46      17.57       1.12      18.69        0.28     0.11   0.803
  732                       23.29       0.00       0.00       2.46      17.57       1.12      18.69        0.28     0.11   0.803
  733                       23.29       0.00       0.00       2.46      17.57       1.12      18.69        0.28     0.11   0.803
  734                       23.29       0.00       0.00       2.46      17.57       1.12      18.69        0.28     0.11   0.803
  735                       23.29       0.00       0.00       2.46      17.57       1.12      18.69        0.28     0.11   0.803
  736                       23.29       0.00       0.00       2.46      17.57       1.12      18.69        0.28     0.11   0.803
  737                       23.29       0.00       0.00       2.46      17.57       1.12      18.69        0.28     0.11   0.803
  738                       23.29       0.00       0.00       2.46      17.57       1.12      18.69        0.28     0.11   0.803
  739                       23.29       0.00       0.00       2.46      17.57       1.12      18.69        0.28     0.11   0.803
  740                       23.29       0.00       0.00       2.46      17.57       1.12      18.69        0.28     0.11   0.803
  741                       23.29       0.00       0.00       2.46      17.57       1.12      18.69        0.28     0.11   0.803
  742                       23.29       0.00       0.00       2.46      17.57       1.12      18.69        0.28     0.11   0.803
  743                       23.29       0.00       0.00       2.46      17.57       1.12      18.69        0.28     0.11   0.803
  744                       23.29       0.00       0.00       2.46      17.57       1.12      18.69        0.19     0.08   0.803
  745                       23.29       0.00       0.00       0.00      17.57       2.81      20.37        0.31     0.12   0.875
  746                       23.29       0.00       0.00       0.00      17.57       2.81      20.37        0.31     0.12   0.875
  747                       23.29       0.00       0.00       0.00      17.57       2.81      20.37        0.41     0.16   0.875
  
  
  ******************
  Node Depth Summary
  ******************
  
  ---------------------------------------------------------------------------------
                                 Average  Maximum  Maximum  Time of Max    Reported
                                   Depth    Depth      HGL   Occurrence   Max Depth
  Node                 Type       Meters   Meters   Meters  days hr:min      Meters
  ---------------------------------------------------------------------------------
  1                    JUNCTION     0.48     1.42    18.27     0  01:53        1.42
  2                    JUNCTION     0.90     2.91    18.13     0  01:59        2.91
  3                    JUNCTION     0.41     1.58    18.08     0  01:59        1.58
  4                    JUNCTION     0.48     1.88    18.04     0  02:03        1.88
  5                    JUNCTION     0.49     1.93    18.04     0  02:02        1.93
  6                    JUNCTION     0.60     2.23    18.03     0  02:00        2.23
  7                    JUNCTION     0.69     2.48    18.01     0  01:59        2.47
  8                    JUNCTION     1.10     3.45    18.04     0  01:55        3.45
  9                    JUNCTION     1.07     3.37    18.05     0  01:56        3.37
  10                   JUNCTION     0.27     1.21    18.06     0  01:56        1.21
  11                   JUNCTION     0.63     1.61    18.23     0  02:16        1.61
  12                   JUNCTION     0.53     1.69    18.54     0  01:50        1.69
  13                   JUNCTION     0.36     1.49    18.06     0  02:00        1.49
  14                   JUNCTION     0.40     1.67    18.04     0  01:59        1.67
  15                   JUNCTION     0.51     1.99    18.03     0  01:56        1.99
  16                   JUNCTION     0.55     2.13    18.02     0  01:55        2.13
  17                   JUNCTION     0.59     2.28    18.01     0  01:53        2.28
  18                   JUNCTION     0.69     2.56    18.00     0  01:49        2.56
  19                   JUNCTION     0.76     2.85    17.99     0  01:43        2.83
  20                   JUNCTION     0.83     3.08    17.98     0  01:43        3.06
  21                   JUNCTION     0.21     1.16    18.01     0  01:48        1.16
  22                   JUNCTION     0.23     1.44    18.00     0  01:36        1.43
  23                   JUNCTION     0.15     1.15    18.00     0  01:38        1.15
  24                   JUNCTION     0.26     1.45    18.01     0  01:56        1.45
  25                   JUNCTION     0.33     1.27    18.12     0  01:59        1.27
  26                   JUNCTION     0.54     1.70    18.21     0  02:04        1.70
  27                   JUNCTION     0.59     1.89    18.27     0  01:58        1.89
  28                   JUNCTION     0.72     1.89    18.21     0  02:11        1.89
  29                   JUNCTION     0.86     2.37    18.20     0  02:00        2.37
  30                   JUNCTION     0.93     2.70    18.18     0  01:57        2.70
  31                   JUNCTION     0.65     2.06    18.18     0  01:59        2.06
  32                   JUNCTION     0.64     2.27    18.06     0  01:55        2.27
  33                   JUNCTION     0.67     2.43    18.02     0  01:53        2.43
  34                   JUNCTION     0.74     2.85    17.97     0  01:49        2.84
  35                   JUNCTION     0.78     2.97    17.96     0  01:46        2.97
  36                   JUNCTION     0.29     1.61    18.00     0  01:36        1.57
  37                   JUNCTION     0.87     3.21    17.96     0  01:43        3.19
  38                   JUNCTION     1.26     4.02    17.89     0  01:48        4.02
  39                   JUNCTION     1.10     3.74    17.91     0  01:43        3.74
  40                   JUNCTION     1.05     3.65    17.92     0  01:46        3.65
  41                   JUNCTION     0.86     3.22    17.95     0  01:47        3.22
  42                   JUNCTION     0.23     1.37    18.00     0  01:40        1.34
  43                   JUNCTION     0.47     1.69    18.04     0  01:50        1.69
  44                   JUNCTION     0.89     2.86    18.05     0  01:54        2.86
  45                   JUNCTION     1.38     4.01    18.00     0  01:55        4.01
  46                   JUNCTION     1.18     3.62    18.03     0  01:53        3.62
  47                   JUNCTION     1.48     4.21    17.99     0  01:47        4.20
  48                   JUNCTION     1.55     4.38    17.95     0  01:55        4.35
  49                   JUNCTION     0.33     1.80    18.00     0  01:36        1.75
  50                   JUNCTION     0.39     1.66    18.00     0  01:41        1.63
  51                   JUNCTION     0.52     1.85    18.01     0  01:48        1.85
  52                   JUNCTION     0.52     2.07    18.00     0  01:28        2.00
  53                   JUNCTION     0.68     2.60    17.89     0  01:46        2.59
  54                   JUNCTION     0.45     1.71    17.92     0  01:46        1.69
  55                   JUNCTION     0.28     1.33    17.95     0  01:46        1.32
  56                   JUNCTION     0.34     1.20    18.00     0  01:45        1.20
  57                   JUNCTION     1.84     4.90    17.84     0  01:50        4.89
  58                   JUNCTION     1.76     4.77    17.88     0  01:50        4.77
  59                   JUNCTION     1.68     4.63    17.92     0  01:55        4.61
  60                   JUNCTION     1.31     4.09    17.88     0  01:47        4.08
  61                   JUNCTION     1.33     4.14    17.86     0  01:43        4.13
  62                   JUNCTION     1.35     4.17    17.81     0  01:48        4.17
  63                   JUNCTION     1.54     4.50    17.76     0  01:47        4.49
  64                   JUNCTION     1.57     4.54    17.75     0  01:50        4.54
  65                   JUNCTION     1.63     4.62    17.71     0  01:50        4.62
  66                   JUNCTION     1.60     4.59    17.73     0  01:50        4.58
  67                   JUNCTION     1.66     4.67    17.70     0  01:50        4.66
  68                   JUNCTION     1.68     4.70    17.67     0  01:50        4.70
  69                   JUNCTION     1.71     4.73    17.64     0  01:53        4.73
  70                   JUNCTION     1.73     4.77    17.61     0  01:49        4.77
  71                   JUNCTION     1.76     4.80    17.59     0  01:53        4.79
  72                   JUNCTION     1.26     3.99    17.52     0  01:53        3.99
  73                   JUNCTION     1.07     3.61    17.62     0  01:50        3.61
  74                   JUNCTION     0.98     3.42    17.68     0  01:50        3.42
  75                   JUNCTION     0.94     3.31    17.71     0  01:50        3.31
  76                   JUNCTION     0.87     3.17    17.83     0  01:45        3.12
  77                   JUNCTION     0.84     3.06    17.84     0  01:45        3.04
  78                   JUNCTION     0.80     2.95    17.86     0  01:45        2.94
  79                   JUNCTION     0.75     2.97    18.00     0  01:34        2.83
  80                   JUNCTION     0.72     2.84    18.00     0  01:34        2.72
  81                   JUNCTION     0.25     1.29    17.91     0  01:46        1.28
  82                   JUNCTION     0.33     1.54    17.92     0  01:46        1.52
  83                   JUNCTION     0.45     1.77    17.92     0  01:45        1.77
  84                   JUNCTION     0.56     2.04    17.92     0  01:45        2.02
  85                   JUNCTION     0.61     2.19    17.86     0  01:45        2.14
  86                   JUNCTION     0.72     2.41    17.81     0  01:46        2.40
  87                   JUNCTION     0.75     2.61    17.71     0  01:48        2.61
  88                   JUNCTION     0.84     2.89    17.65     0  01:49        2.89
  89                   JUNCTION     0.29     1.21    17.67     0  01:50        1.21
  90                   JUNCTION     0.33     1.41    17.62     0  01:50        1.41
  91                   JUNCTION     0.35     1.48    17.59     0  01:53        1.48
  92                   JUNCTION     0.44     1.87    17.50     0  01:50        1.87
  93                   JUNCTION     1.45     4.30    17.50     0  01:50        4.30
  94                   JUNCTION     1.79     4.82    17.55     0  01:53        4.82
  95                   JUNCTION     0.33     1.44    17.49     0  01:50        1.43
  96                   JUNCTION     0.37     1.54    17.46     0  01:50        1.54
  97                   JUNCTION     0.16     0.88    17.38     0  01:50        0.88
  98                   JUNCTION     0.30     1.34    17.24     0  01:50        1.33
  99                   JUNCTION     0.20     1.03    17.28     0  01:50        1.03
  100                  JUNCTION     0.34     1.58    17.82     0  01:34        1.49
  101                  JUNCTION     0.25     1.50    18.00     0  01:34        1.37
  102                  JUNCTION     0.51     1.81    18.04     0  01:44        1.81
  103                  JUNCTION     0.46     1.72    18.09     0  01:45        1.72
  104                  JUNCTION     0.49     1.81    18.09     0  01:46        1.81
  105                  JUNCTION     0.42     1.61    18.11     0  01:48        1.61
  106                  JUNCTION     0.49     1.83    18.11     0  01:47        1.83
  107                  JUNCTION     0.37     1.61    18.11     0  01:54        1.61
  108                  JUNCTION     0.35     1.51    18.11     0  01:50        1.50
  109                  JUNCTION     0.54     1.95    18.12     0  01:41        1.95
  110                  JUNCTION     0.27     1.44    18.00     0  01:31        1.44
  111                  JUNCTION     0.58     2.20    18.00     0  01:33        2.20
  112                  JUNCTION     0.68     2.54    17.97     0  01:33        2.49
  113                  JUNCTION     0.58     2.12    17.94     0  01:33        2.06
  114                  JUNCTION     0.60     2.13    17.75     0  01:38        2.13
  115                  JUNCTION     0.52     1.87    17.76     0  01:37        1.85
  116                  JUNCTION     0.15     0.91    17.53     0  01:45        0.91
  117                  JUNCTION     0.44     1.78    17.52     0  01:45        1.78
  118                  JUNCTION     0.18     0.85    17.47     0  01:43        0.85
  119                  JUNCTION     0.36     1.60    17.14     0  01:53        1.59
  120                  JUNCTION     1.88     4.91    17.35     0  01:53        4.91
  121                  JUNCTION     1.89     4.92    17.39     0  01:53        4.92
  122                  JUNCTION     1.88     4.93    17.46     0  01:53        4.93
  123                  JUNCTION     1.47     4.32    17.48     0  01:53        4.32
  124                  JUNCTION     1.92     5.03    17.77     0  01:50        5.03
  125                  JUNCTION     0.70     2.23    17.89     0  01:46        2.21
  126                  JUNCTION     0.80     2.54    18.00     0  01:22        2.42
  127                  JUNCTION     0.86     2.64    18.00     0  01:22        2.52
  128                  JUNCTION     1.07     2.98    18.04     0  01:31        2.98
  129                  JUNCTION     1.14     3.14    18.00     0  01:24        3.14
  130                  JUNCTION     1.15     3.30    18.00     0  01:24        3.09
  131                  JUNCTION     1.14     3.32    17.87     0  01:29        3.17
  132                  JUNCTION     1.13     3.39    17.79     0  01:29        3.28
  133                  JUNCTION     1.24     3.64    17.62     0  01:49        3.63
  134                  JUNCTION     1.27     3.71    17.58     0  01:50        3.70
  135                  JUNCTION     1.28     3.76    17.53     0  01:53        3.76
  136                  JUNCTION     1.29     3.81    17.47     0  01:50        3.80
  137                  JUNCTION     1.30     3.86    17.42     0  01:53        3.85
  138                  JUNCTION     1.30     3.88    17.34     0  01:50        3.87
  139                  JUNCTION     1.28     3.88    17.23     0  01:53        3.87
  140                  JUNCTION     1.90     4.86    17.11     0  01:54        4.85
  141                  JUNCTION     1.87     4.78    16.97     0  01:54        4.78
  142                  JUNCTION     0.48     1.59    17.49     0  01:34        1.59
  143                  JUNCTION     0.57     2.33    17.45     0  01:46        2.33
  144                  JUNCTION     0.03     0.24    16.37     0  01:48        0.24
  145                  JUNCTION     0.55     2.00    17.40     0  01:39        2.00
  146                  JUNCTION     0.71     2.43    17.39     0  01:42        2.42
  147                  JUNCTION     0.30     1.90    18.00     0  01:32        1.35
  148                  JUNCTION     0.61     2.33    17.28     0  01:43        2.33
  149                  JUNCTION     0.26     1.91    18.00     0  01:32        1.91
  150                  JUNCTION     0.49     2.19    18.00     0  01:33        2.09
  151                  JUNCTION     0.69     2.48    18.01     0  01:28        2.48
  152                  JUNCTION     0.79     2.43    18.08     0  01:45        2.43
  153                  JUNCTION     0.58     2.04    18.11     0  01:53        2.04
  154                  JUNCTION     0.85     2.41    18.12     0  01:55        2.41
  155                  JUNCTION     0.89     2.37    18.16     0  02:02        2.37
  156                  JUNCTION     0.72     1.92    18.19     0  01:59        1.92
  157                  JUNCTION     0.44     1.54    18.16     0  01:59        1.54
  158                  JUNCTION     0.47     1.65    18.15     0  01:57        1.65
  159                  JUNCTION     0.52     1.80    18.17     0  01:48        1.80
  160                  JUNCTION     0.63     2.00    18.17     0  01:47        2.00
  161                  JUNCTION     2.00     5.14    17.65     0  01:53        5.14
  162                  JUNCTION     2.04     5.19    17.59     0  01:53        5.19
  163                  JUNCTION     2.07     5.23    17.55     0  01:53        5.23
  164                  JUNCTION     2.09     5.27    17.51     0  01:54        5.27
  165                  JUNCTION     2.11     5.31    17.46     0  01:54        5.31
  166                  JUNCTION     2.13     5.33    17.41     0  01:54        5.33
  167                  JUNCTION     2.15     5.36    17.36     0  01:55        5.36
  168                  JUNCTION     2.16     5.37    17.29     0  01:54        5.37
  169                  JUNCTION     2.17     5.38    17.22     0  01:54        5.38
  170                  JUNCTION     2.18     5.38    17.14     0  01:54        5.38
  171                  JUNCTION     2.19     5.38    17.06     0  01:55        5.38
  172                  JUNCTION     2.20     5.38    16.97     0  01:55        5.38
  173                  JUNCTION     2.21     5.37    16.89     0  01:55        5.37
  174                  JUNCTION     2.22     5.35    16.79     0  01:55        5.35
  175                  JUNCTION     2.22     5.34    16.70     0  01:55        5.34
  176                  JUNCTION     2.23     5.32    16.60     0  01:55        5.32
  177                  JUNCTION     2.47     5.59    16.49     0  01:55        5.59
  178                  JUNCTION     0.75     2.30    17.54     0  01:31        2.30
  179                  JUNCTION     0.72     2.82    17.38     0  01:45        2.82
  180                  JUNCTION     0.03     0.24    15.71     0  01:53        0.24
  181                  JUNCTION     0.51     1.92    16.88     0  01:36        1.92
  182                  JUNCTION     0.64     2.30    16.71     0  01:44        2.30
  183                  JUNCTION     0.06     0.21    17.06     0  01:37        0.21
  184                  JUNCTION     0.45     1.65    16.16     0  01:44        1.65
  185                  JUNCTION     0.08     0.75    17.60     0  01:34        0.48
  186                  JUNCTION     0.54     2.33    17.48     0  01:31        2.13
  187                  JUNCTION     0.93     2.70    16.90     0  01:31        2.67
  188                  JUNCTION     1.11     3.51    17.91     0  01:28        3.43
  189                  JUNCTION     1.17     3.34    17.99     0  01:34        3.33
  190                  JUNCTION     1.07     2.93    18.11     0  01:47        2.93
  191                  JUNCTION     1.01     2.64    18.12     0  01:57        2.64
  192                  JUNCTION     0.49     1.77    18.16     0  02:10        1.77
  193                  JUNCTION     0.69     2.33    18.13     0  02:02        2.33
  194                  JUNCTION     1.15     3.23    18.11     0  01:58        3.23
  195                  JUNCTION     0.35     1.29    18.14     0  01:50        1.29
  196                  JUNCTION     0.50     1.80    18.18     0  01:45        1.80
  197                  JUNCTION     0.64     2.20    18.12     0  01:44        2.20
  198                  JUNCTION     1.34     3.65    18.07     0  01:50        3.65
  199                  JUNCTION     1.47     3.96    18.03     0  01:44        3.96
  200                  JUNCTION     0.61     2.08    18.12     0  01:43        2.08
  201                  JUNCTION     0.47     1.64    18.11     0  01:41        1.64
  202                  JUNCTION     0.35     1.36    18.16     0  01:38        1.36
  203                  JUNCTION     0.24     1.47    18.00     0  01:30        1.47
  204                  JUNCTION     0.36     1.98    18.00     0  01:25        1.77
  205                  JUNCTION     1.34     4.18    18.00     0  01:27        3.97
  206                  JUNCTION     1.11     3.92    17.46     0  01:29        3.88
  207                  JUNCTION     0.20     1.66    18.00     0  01:27        1.31
  208                  JUNCTION     0.09     1.15    18.00     0  01:28        0.87
  209                  JUNCTION     0.64     1.68    15.70     0  01:34        1.68
  210                  JUNCTION     0.25     1.14    17.53     0  01:32        1.14
  211                  JUNCTION     0.17     0.56    16.29     0  01:38        0.56
  212                  JUNCTION     0.64     2.22    15.35     0  01:33        2.22
  213                  JUNCTION     0.48     1.38    14.23     0  01:34        1.38
  214                  JUNCTION     0.03     0.15    16.34     0  01:41        0.15
  215                  JUNCTION     0.50     1.06    14.55     0  01:38        1.06
  216                  JUNCTION     0.03     0.16    17.01     0  01:34        0.16
  217                  JUNCTION     0.50     1.00    14.02     0  01:39        1.00
  218                  JUNCTION     0.51     1.03    13.63     0  01:33        1.02
  219                  JUNCTION     0.49     0.97    13.45     0  01:34        0.97
  220                  JUNCTION     0.56     1.12    12.88     0  01:32        1.12
  221                  JUNCTION     0.64     1.32    12.51     0  01:38        1.32
  222                  JUNCTION     0.38     1.16    14.88     0  01:20        1.16
  223                  JUNCTION     0.43     1.49    15.53     0  01:32        1.49
  224                  JUNCTION     0.42     1.54    15.89     0  01:35        1.54
  225                  JUNCTION     0.03     0.24    15.07     0  01:55        0.24
  226                  JUNCTION     0.03     0.24    14.53     0  01:57        0.24
  227                  JUNCTION     0.03     0.22    13.98     0  02:01        0.22
  228                  JUNCTION     0.62     1.31    12.45     0  01:40        1.31
  229                  JUNCTION     0.62     2.34    16.35     0  01:47        2.34
  230                  JUNCTION     0.52     2.42    15.95     0  01:23        1.86
  231                  JUNCTION     0.44     1.83    14.88     0  01:23        1.41
  232                  JUNCTION     0.67     1.40    12.38     0  01:44        1.40
  233                  JUNCTION     0.93     2.95    17.55     0  01:30        2.95
  234                  JUNCTION     0.63     2.47    16.44     0  01:30        2.47
  235                  JUNCTION     0.39     1.34    14.81     0  01:29        1.33
  236                  JUNCTION     0.66     1.40    12.32     0  01:46        1.40
  237                  JUNCTION     2.31     5.00    15.51     0  01:55        4.99
  238                  JUNCTION     1.92     4.05    14.41     0  01:55        4.05
  239                  JUNCTION     1.55     3.15    13.36     0  01:53        3.15
  240                  JUNCTION     1.44     2.69    12.25     0  01:47        2.69
  241                  JUNCTION     1.69     4.16    15.71     0  01:57        4.16
  242                  JUNCTION     0.08     0.26    16.44     0  01:30        0.26
  243                  JUNCTION     0.12     0.39    15.81     0  01:30        0.39
  244                  JUNCTION     0.00     0.00    16.65     0  00:00        0.00
  245                  JUNCTION     0.75     1.86    13.58     0  01:45        1.86
  246                  JUNCTION     1.67     4.15    15.86     0  02:00        4.15
  247                  JUNCTION     0.01     0.07    16.44     0  01:39        0.07
  248                  JUNCTION     0.81     3.01    16.49     0  01:34        2.99
  249                  JUNCTION     0.70     2.44    15.51     0  01:38        2.44
  250                  JUNCTION     1.04     2.88    14.71     0  01:46        2.87
  251                  JUNCTION     1.66     4.17    16.03     0  02:03        4.17
  252                  JUNCTION     0.14     1.05    17.42     0  01:29        0.93
  253                  JUNCTION     0.86     3.20    16.84     0  01:34        3.18
  254                  JUNCTION     1.65     4.20    16.21     0  02:04        4.20
  255                  JUNCTION     0.31     1.62    17.99     0  01:30        1.62
  256                  JUNCTION     0.88     3.28    17.18     0  01:35        3.28
  257                  JUNCTION     0.27     1.73    18.00     0  01:19        1.63
  258                  JUNCTION     1.17     3.56    15.66     0  01:46        3.56
  259                  JUNCTION     1.64     4.23    16.39     0  02:05        4.23
  260                  JUNCTION     0.17     1.68    18.00     0  01:30        1.68
  261                  JUNCTION     0.87     3.23    17.34     0  01:35        3.22
  262                  JUNCTION     0.02     0.18    17.03     0  01:42        0.18
  263                  JUNCTION     1.23     3.83    16.07     0  01:46        3.83
  264                  JUNCTION     1.63     4.26    16.58     0  02:04        4.26
  265                  JUNCTION     0.72     3.24    18.00     0  01:28        2.91
  266                  JUNCTION     0.88     3.23    17.49     0  01:35        3.23
  267                  JUNCTION     0.93     3.37    16.95     0  01:46        3.37
  268                  JUNCTION     1.27     4.02    16.39     0  01:47        4.02
  269                  JUNCTION     1.60     4.26    16.73     0  02:04        4.26
  270                  JUNCTION     1.57     4.27    16.89     0  02:03        4.27
  271                  JUNCTION     0.56     2.15    17.50     0  01:39        2.15
  272                  JUNCTION     0.12     1.23    17.50     0  01:48        1.23
  273                  JUNCTION     0.98     3.56    17.34     0  01:47        3.56
  274                  JUNCTION     1.06     3.90    17.15     0  01:43        3.85
  275                  JUNCTION     1.54     4.27    17.02     0  02:02        4.27
  276                  JUNCTION     1.48     4.22    17.13     0  02:02        4.22
  277                  JUNCTION     1.34     4.06    17.23     0  02:01        4.06
  278                  JUNCTION     1.25     3.95    17.33     0  02:01        3.95
  279                  JUNCTION     0.41     1.67    17.89     0  01:42        1.63
  280                  JUNCTION     0.43     1.79    17.81     0  01:42        1.76
  281                  JUNCTION     0.86     3.50    18.00     0  01:30        3.36
  282                  JUNCTION     0.46     2.14    17.83     0  01:41        2.14
  283                  JUNCTION     0.49     2.17    17.66     0  01:46        2.16
  284                  JUNCTION     0.10     1.05    17.58     0  01:47        1.05
  285                  JUNCTION     0.97     3.57    17.54     0  01:47        3.57
  286                  JUNCTION     0.97     3.58    17.64     0  01:47        3.58
  287                  JUNCTION     0.95     3.56    17.73     0  01:45        3.56
  288                  JUNCTION     0.92     3.51    17.81     0  01:43        3.49
  289                  JUNCTION     0.22     1.34    17.90     0  01:39        1.31
  290                  JUNCTION     0.94     3.80    18.00     0  01:36        3.73
  291                  JUNCTION     1.05     4.04    17.95     0  01:39        3.97
  292                  JUNCTION     1.09     4.08    17.76     0  01:46        4.04
  293                  JUNCTION     1.09     4.10    17.63     0  01:46        4.03
  294                  JUNCTION     0.74     3.22    18.00     0  01:35        3.22
  295                  JUNCTION     0.10     1.15    18.00     0  01:35        1.04
  296                  JUNCTION     0.80     3.32    17.99     0  01:30        3.22
  297                  JUNCTION     0.74     3.07    17.92     0  01:43        3.06
  298                  JUNCTION     0.14     1.15    18.00     0  01:33        0.77
  299                  JUNCTION     1.17     3.83    17.40     0  02:01        3.81
  300                  JUNCTION     1.09     3.67    17.45     0  02:00        3.67
  301                  JUNCTION     0.99     3.49    17.46     0  02:01        3.49
  302                  JUNCTION     0.82     3.14    17.49     0  02:01        3.14
  303                  JUNCTION     0.21     1.66    18.00     0  01:32        1.66
  304                  JUNCTION     0.46     2.31    17.96     0  01:43        2.31
  305                  JUNCTION     0.35     1.93    18.01     0  01:40        1.93
  306                  JUNCTION     0.57     2.73    18.00     0  01:38        2.73
  307                  JUNCTION     0.39     1.50    18.17     0  01:50        1.50
  308                  JUNCTION     0.60     2.21    18.14     0  02:01        2.21
  309                  JUNCTION     0.33     1.31    18.16     0  02:00        1.31
  310                  JUNCTION     0.41     1.51    18.18     0  01:47        1.51
  311                  JUNCTION     0.38     1.41    18.21     0  01:47        1.41
  312                  JUNCTION     0.26     1.27    18.12     0  01:57        1.27
  313                  JUNCTION     0.32     1.30    18.15     0  01:49        1.30
  314                  JUNCTION     0.34     1.37    18.17     0  01:47        1.37
  315                  JUNCTION     0.32     1.33    18.13     0  01:47        1.33
  316                  JUNCTION     0.36     1.46    18.13     0  01:44        1.46
  317                  JUNCTION     0.37     1.50    18.30     0  01:42        1.50
  318                  JUNCTION     0.15     1.15    18.00     0  01:32        1.03
  319                  JUNCTION     0.13     1.15    18.00     0  01:33        1.15
  320                  JUNCTION     0.16     0.93    17.78     0  01:30        0.92
  321                  JUNCTION     0.12     0.64    17.31     0  01:49        0.58
  322                  JUNCTION     0.15     0.79    17.59     0  01:30        0.78
  323                  JUNCTION     0.05     0.95    17.80     0  01:44        0.62
  324                  JUNCTION     0.14     0.91    17.71     0  01:43        0.74
  325                  JUNCTION     0.14     1.04    17.84     0  01:42        0.78
  326                  JUNCTION     0.14     1.00    17.80     0  01:42        0.80
  327                  JUNCTION     0.18     1.01    17.68     0  01:41        0.96
  328                  JUNCTION     0.17     1.33    18.00     0  01:41        0.98
  329                  JUNCTION     0.08     1.15    18.00     0  01:41        0.81
  330                  JUNCTION     0.21     1.06    17.73     0  01:47        1.06
  331                  JUNCTION     0.09     1.15    18.00     0  01:41        0.86
  332                  JUNCTION     0.16     0.98    17.78     0  01:40        0.95
  333                  JUNCTION     0.10     1.15    18.00     0  01:40        0.89
  334                  JUNCTION     0.10     1.15    18.00     0  01:40        0.91
  335                  JUNCTION     0.17     1.20    18.00     0  01:39        1.03
  336                  JUNCTION     0.20     1.15    18.00     0  01:43        1.15
  337                  JUNCTION     0.43     1.49    18.16     0  01:49        1.49
  338                  JUNCTION     0.20     1.19    18.04     0  02:02        1.19
  339                  JUNCTION     0.29     1.24    18.09     0  01:55        1.24
  340                  JUNCTION     0.33     1.28    18.13     0  01:56        1.28
  341                  JUNCTION     0.28     1.30    18.15     0  02:10        1.30
  342                  JUNCTION     0.18     1.16    18.01     0  01:40        1.16
  343                  JUNCTION     0.13     1.16    18.01     0  01:49        1.16
  344                  JUNCTION     0.04     0.31    17.16     0  02:14        0.31
  345                  JUNCTION     0.09     1.16    18.01     0  01:38        1.16
  346                  JUNCTION     0.04     1.15    18.00     0  01:46        1.15
  348                  JUNCTION     0.00     0.00    16.85     0  00:00        0.00
  349                  JUNCTION     0.11     1.16    18.01     0  01:29        1.16
  350                  JUNCTION     0.33     1.31    18.16     0  02:09        1.31
  z_0512_001_001       JUNCTION     0.50     1.38    18.23     0  02:18        1.38
  z_0512_001_018       JUNCTION     0.50     1.38    18.23     0  02:18        1.38
  z_0512_001_020       JUNCTION     0.23     1.21    18.06     0  02:03        1.21
  z_0512_001_024       JUNCTION     0.39     1.37    18.22     0  02:05        1.37
  z_0512_001_034       JUNCTION     0.18     1.17    18.02     0  01:59        1.17
  z_0512_001_098       JUNCTION     0.19     1.17    18.02     0  01:57        1.17
  z_0512_001_105       JUNCTION     0.21     1.19    18.04     0  02:00        1.19
  z_0512_001_128       JUNCTION     0.20     1.17    18.02     0  01:58        1.17
  z_0512_001_134       JUNCTION     0.25     1.29    18.14     0  01:58        1.29
  z_0512_001_170       JUNCTION     0.20     1.17    18.02     0  02:01        1.17
  347                  OUTFALL      1.06     1.73    11.12     0  01:47        1.73
  
  
  *******************
  Node Inflow Summary
  *******************
  
  -------------------------------------------------------------------------------------------------
                                  Maximum  Maximum                  Lateral       Total        Flow
                                  Lateral    Total  Time of Max      Inflow      Inflow     Balance
                                   Inflow   Inflow   Occurrence      Volume      Volume       Error
  Node                 Type           CMS      CMS  days hr:min    10^6 ltr    10^6 ltr     Percent
  -------------------------------------------------------------------------------------------------
  1                    JUNCTION     0.139    0.139     0  01:30        0.34       0.341       0.949
  2                    JUNCTION     0.133    0.579     0  01:29       0.327         1.4       1.200
  3                    JUNCTION     0.114    0.246     0  01:30        0.28       0.604       0.401
  4                    JUNCTION     0.000    0.379     0  01:30           0       0.923      -0.361
  5                    JUNCTION     0.000    0.378     0  01:30           0       0.944       0.778
  6                    JUNCTION     0.138    0.615     0  01:30       0.338        1.52      -0.478
  7                    JUNCTION     0.090    0.701     0  01:30       0.221        1.77       1.992
  8                    JUNCTION     0.000    0.679     0  01:27           0        2.08       0.040
  9                    JUNCTION     0.296    0.715     0  01:27       0.727        2.07      -0.607
  10                   JUNCTION     0.111    0.111     0  01:30       0.273       0.273       1.958
  11                   JUNCTION     0.139    0.139     0  01:30        0.34       0.446       0.555
  12                   JUNCTION     0.260    0.260     0  01:30       0.639        0.64       0.580
  13                   JUNCTION     0.161    0.175     0  01:30       0.394       0.412       0.337
  14                   JUNCTION     0.000    0.175     0  01:30           0       0.406       0.802
  15                   JUNCTION     0.151    0.296     0  01:31        0.37       0.757      -0.353
  16                   JUNCTION     0.000    0.296     0  01:31           0        0.77       0.039
  17                   JUNCTION     0.000    0.278     0  01:32           0       0.758       0.118
  18                   JUNCTION     0.140    0.353     0  01:26       0.344        1.09      -0.139
  19                   JUNCTION     0.000    0.309     0  01:24           0        1.06       0.312
  20                   JUNCTION     0.076    0.373     0  01:25       0.187        1.24      -0.408
  21                   JUNCTION     0.132    0.168     0  01:34       0.323       0.355       1.704
  22                   JUNCTION     0.000    0.114     0  01:35           0       0.107       0.532
  23                   JUNCTION     0.000    0.076     0  01:37           0     0.00637      -4.628
  24                   JUNCTION     0.000    0.074     0  01:33           0      0.0317       3.051
  25                   JUNCTION     0.145    0.145     0  01:30       0.357       0.357       2.681
  26                   JUNCTION     0.189    0.189     0  01:30       0.464       0.514       0.430
  27                   JUNCTION     0.166    0.326     0  01:22       0.407        1.04       1.229
  28                   JUNCTION     0.000    0.134     0  02:55           0       0.354       0.563
  29                   JUNCTION     0.179    0.219     0  01:24       0.439       0.791       0.276
  30                   JUNCTION     0.000    0.610     0  01:25           0         1.9      -0.619
  31                   JUNCTION     0.268    0.385     0  01:28       0.658        1.15       0.784
  32                   JUNCTION     0.000    0.418     0  01:28           0         1.4      -0.391
  33                   JUNCTION     0.143    0.561     0  01:30       0.351        1.78       0.781
  34                   JUNCTION     0.000    0.557     0  01:30           0        1.75      -0.471
  35                   JUNCTION     0.000    0.551     0  01:29           0        1.86       0.026
  36                   JUNCTION     0.000    0.154     0  01:36           0       0.291      -0.149
  37                   JUNCTION     0.076    0.437     0  01:26       0.187        1.49       1.316
  38                   JUNCTION     0.144    1.196     0  01:26       0.353        5.28      -0.441
  39                   JUNCTION     0.257    0.751     0  01:26       0.632        3.45       0.156
  40                   JUNCTION     0.154    0.790     0  01:27       0.378        2.76      -0.450
  41                   JUNCTION     0.000    0.665     0  01:28           0        2.03       0.884
  42                   JUNCTION     0.000    0.147     0  01:39           0       0.236      -0.472
  43                   JUNCTION     0.358    0.358     0  01:30       0.879       0.965       3.296
  44                   JUNCTION     0.000    0.544     0  01:29           0        1.89       1.042
  45                   JUNCTION     0.000    1.371     0  01:29           0        4.06      -1.002
  46                   JUNCTION     0.114    0.770     0  01:32        0.28        2.36       0.746
  47                   JUNCTION     0.000    1.623     0  01:30           0        5.91      -0.056
  48                   JUNCTION     0.000    1.641     0  01:27           0        6.57       0.294
  49                   JUNCTION     0.000    0.172     0  01:36           0       0.165       0.981
  50                   JUNCTION     0.221    0.339     0  01:30       0.542       0.666       3.239
  51                   JUNCTION     0.395    0.453     0  01:30        0.97        1.04      -0.396
  52                   JUNCTION     0.000    0.347     0  01:27           0        0.86       0.815
  53                   JUNCTION     0.355    0.759     0  01:30       0.871         1.8      -0.532
  54                   JUNCTION     0.119    0.278     0  01:24       0.292       0.484       0.874
  55                   JUNCTION     0.000    0.168     0  01:25           0       0.219       0.729
  56                   JUNCTION     0.510    0.510     0  01:30        1.25        1.27       0.509
  57                   JUNCTION     0.000    1.916     0  01:34           0        8.77       0.096
  58                   JUNCTION     0.201    1.767     0  01:26       0.493        7.72      -0.073
  59                   JUNCTION     0.000    1.581     0  01:26           0        6.69      -0.362
  60                   JUNCTION     0.244    1.905     0  01:25       0.598        7.62      -0.160
  61                   JUNCTION     0.114    2.038     0  01:25        0.28        8.24      -0.042
  62                   JUNCTION     0.159    2.156     0  01:25       0.391        8.87       0.288
  63                   JUNCTION     0.141    2.167     0  01:25       0.346        9.25      -0.296
  64                   JUNCTION     0.279    2.230     0  01:24       0.684          10      -0.008
  65                   JUNCTION     0.138    2.155     0  01:23       0.338        10.9       0.040
  66                   JUNCTION     0.139    2.224     0  01:24        0.34        10.6      -0.020
  67                   JUNCTION     0.114    2.280     0  01:23        0.28        11.8      -0.057
  68                   JUNCTION     0.114    2.178     0  01:23        0.28        12.1      -0.000
  69                   JUNCTION     0.000    2.135     0  01:41           0        12.4       0.010
  70                   JUNCTION     0.000    2.171     0  01:42           0        12.8      -0.026
  71                   JUNCTION     0.114    2.258     0  01:42        0.28        13.4      -0.005
  72                   JUNCTION     0.136    0.732     0  01:25       0.333        3.55      -0.401
  73                   JUNCTION     0.183    0.741     0  01:26        0.45        3.24       0.823
  74                   JUNCTION     0.000    0.706     0  01:36           0        2.79      -0.034
  75                   JUNCTION     0.000    0.761     0  01:36           0        2.78      -0.031
  76                   JUNCTION     0.000    0.922     0  01:35           0         2.8      -0.142
  77                   JUNCTION     0.136    0.879     0  01:29       0.335        2.75      -0.245
  78                   JUNCTION     0.091    0.917     0  01:34       0.224        2.34      -0.398
  79                   JUNCTION     0.000    0.766     0  01:29           0           2      -0.258
  80                   JUNCTION     0.000    0.796     0  01:30           0         1.9      -0.255
  81                   JUNCTION     0.000    0.114     0  01:26           0       0.129       2.971
  82                   JUNCTION     0.000    0.126     0  01:26           0        0.17       0.306
  83                   JUNCTION     0.132    0.213     0  01:30       0.325       0.477       0.107
  84                   JUNCTION     0.126    0.229     0  01:30       0.308       0.657      -0.142
  85                   JUNCTION     0.000    0.170     0  01:27           0       0.572      -0.251
  86                   JUNCTION     0.323    0.415     0  01:28       0.793        1.26       0.236
  87                   JUNCTION     0.200    0.572     0  01:29       0.492        1.73       0.519
  88                   JUNCTION     0.000    0.543     0  01:29           0        1.73       0.647
  89                   JUNCTION     0.308    0.308     0  01:30       0.755       0.769       0.441
  90                   JUNCTION     0.119    0.369     0  01:30       0.306        1.04      -0.034
  91                   JUNCTION     0.123    0.490     0  01:30       0.303        1.35       0.914
  92                   JUNCTION     0.239    0.722     0  01:30       0.587         1.9      -0.033
  93                   JUNCTION     0.312    1.401     0  01:26       0.766        6.22      -0.288
  94                   JUNCTION     0.125    2.339     0  01:42       0.307        13.9       0.039
  95                   JUNCTION     0.457    0.606     0  01:30        1.12        1.56      -0.228
  96                   JUNCTION     0.226    0.822     0  01:30       0.555        2.12       2.351
  97                   JUNCTION     0.000    0.193     0  01:30           0       0.496       0.305
  98                   JUNCTION     0.065    0.747     0  01:30       0.159        2.03      -0.399
  99                   JUNCTION     0.138    0.310     0  01:30       0.338       0.885       0.141
  100                  JUNCTION     0.133    0.221     0  01:30       0.327        0.58       0.106
  101                  JUNCTION     0.000    0.159     0  01:33           0       0.251      -0.370
  102                  JUNCTION     0.088    0.400     0  01:34       0.215        1.62      -0.442
  103                  JUNCTION     0.140    0.298     0  01:25       0.344       0.908       0.252
  104                  JUNCTION     0.000    0.273     0  01:23           0        0.71      -0.972
  105                  JUNCTION     0.000    0.216     0  01:25           0       0.373      -0.056
  106                  JUNCTION     0.116    0.230     0  01:26       0.284       0.582      -0.611
  107                  JUNCTION     0.000    0.195     0  01:26           0       0.141       1.522
  108                  JUNCTION     0.000    0.080     0  01:28           0      0.0943       0.055
  109                  JUNCTION     0.270    0.408     0  01:28       0.664       0.931      -0.033
  110                  JUNCTION     0.000    0.248     0  01:29           0       0.297      -1.521
  111                  JUNCTION     0.147    0.284     0  01:31       0.361       0.941       0.820
  112                  JUNCTION     0.442    0.500     0  01:29        1.08        1.81       0.144
  113                  JUNCTION     0.076    0.310     0  01:28       0.187       0.905      -0.369
  114                  JUNCTION     0.000    0.221     0  01:28           0       0.733      -0.233
  115                  JUNCTION     0.114    0.410     0  01:23        0.28        1.66      -0.056
  116                  JUNCTION     0.000    0.126     0  01:33           0       0.194      -0.272
  117                  JUNCTION     0.000    0.236     0  01:31           0       0.552      -1.088
  118                  JUNCTION     0.000    0.089     0  01:29           0       0.125       0.883
  119                  JUNCTION     0.000    0.735     0  01:31           0        2.12       2.774
  120                  JUNCTION     0.000    3.321     0  01:35           0        22.5       0.033
  121                  JUNCTION     0.000    3.471     0  01:35           0        22.5      -0.147
  122                  JUNCTION     0.000    3.260     0  01:43           0        20.5      -0.047
  123                  JUNCTION     0.159    1.439     0  01:26       0.407        6.65       0.328
  124                  JUNCTION     0.389    1.888     0  01:25       0.955         9.9       0.045
  125                  JUNCTION     0.000    0.302     0  01:23           0       0.509       1.147
  126                  JUNCTION     0.000    0.277     0  01:24           0        0.61      -0.028
  127                  JUNCTION     0.000    0.286     0  01:31           0       0.692       0.069
  128                  JUNCTION     0.754    0.754     0  01:30        1.85        2.12       0.071
  129                  JUNCTION     0.251    0.621     0  01:23       0.617        2.01       0.058
  130                  JUNCTION     0.154    0.685     0  01:24       0.378        2.18       0.045
  131                  JUNCTION     0.000    0.597     0  01:24           0        2.09       0.061
  132                  JUNCTION     0.139    0.639     0  01:27       0.342        2.38       0.161
  133                  JUNCTION     0.000    0.957     0  01:29           0        4.03      -0.460
  134                  JUNCTION     0.139    0.980     0  01:32        0.34        4.41      -0.010
  135                  JUNCTION     0.114    0.985     0  01:33        0.28        4.69       0.035
  136                  JUNCTION     0.000    0.896     0  01:35           0        4.69       0.020
  137                  JUNCTION     0.136    0.923     0  01:36       0.335        5.03       0.037
  138                  JUNCTION     0.212    1.047     0  01:24        0.52        5.56       0.039
  139                  JUNCTION     0.152    1.141     0  01:24       0.372        5.93       0.322
  140                  JUNCTION     0.136    4.062     0  01:24       0.333        28.8      -0.009
  141                  JUNCTION     0.221    4.696     0  01:34       0.542        31.4       0.279
  142                  JUNCTION     0.114    0.170     0  01:27        0.28       0.372       1.987
  143                  JUNCTION     0.000    0.139     0  01:35           0       0.516      -1.037
  144                  JUNCTION     0.000    0.087     0  01:45           0       0.106      -0.183
  145                  JUNCTION     0.136    0.403     0  01:27       0.333        1.78      -0.117
  146                  JUNCTION     0.000    0.292     0  01:32           0         1.1      -0.518
  147                  JUNCTION     0.114    0.237     0  01:31        0.28       0.504      -0.064
  148                  JUNCTION     0.000    0.597     0  01:33           0        2.17      -0.135
  149                  JUNCTION     0.000    0.327     0  01:32           0       0.531      -2.356
  150                  JUNCTION     0.161    0.309     0  01:31       0.396       0.779       0.214
  151                  JUNCTION     0.000    0.314     0  01:28           0       0.894      -0.573
  152                  JUNCTION     0.312    0.513     0  01:26       0.766        2.02       0.454
  153                  JUNCTION     0.000    0.168     0  01:26           0       0.319      -0.087
  154                  JUNCTION     0.000    0.169     0  01:26           0       0.297       0.902
  155                  JUNCTION     0.000    0.116     0  01:17           0       0.509       0.136
  156                  JUNCTION     0.176    0.284     0  01:30       0.432       0.777       0.623
  157                  JUNCTION     0.000    0.222     0  01:31           0       0.187      -1.083
  158                  JUNCTION     0.000    0.240     0  01:30           0       0.318      -1.243
  159                  JUNCTION     0.000    0.316     0  01:28           0       0.592       0.870
  160                  JUNCTION     0.259    0.360     0  01:28       0.636        1.29      -0.234
  161                  JUNCTION     0.270    1.962     0  01:39       0.662        10.6       0.057
  162                  JUNCTION     0.114    1.808     0  01:39        0.28        10.9       0.052
  163                  JUNCTION     0.155    1.735     0  01:24       0.379        11.2       0.035
  164                  JUNCTION     0.152    1.756     0  01:23       0.374        11.7       0.032
[...]
  77                          2.13      2.13      2.14      0.15         0.17
  197                         2.05      2.05      2.09      0.01         0.01
  465                         0.01      0.01      4.56      0.01         0.01
  468                         0.16      0.16      4.49      0.01         0.01
  466                         0.26      0.26      4.52      0.01         0.01
  219                         1.20      1.20      1.25      0.01         0.01
  218                         0.49      0.49      0.70      0.01         0.01
  274                         0.46      0.46      0.54      0.01         0.01
  230                         0.95      0.95      1.42      0.07         0.07
  430                         0.88      0.88      4.49      0.01         0.01
  104                         1.30      1.30      1.57      0.01         0.01
  429                         0.73      0.73      4.61      0.01         0.01
  352                         0.68      0.68      4.60      0.01         0.01
  241                         0.93      0.93      1.16      0.01         0.01
  8                           1.12      1.12      1.26      0.05         0.06
  357                         0.54      0.54      4.57      0.01         0.01
  9                           1.19      1.19      1.22      0.10         0.13
  14                          0.94      0.94      1.17      0.01         0.01
  382                         0.75      0.75      0.93      0.01         0.01
  381                         0.26      0.26      4.53      0.01         0.01
  12                          1.30      1.30      1.46      0.05         0.03
  433                         0.63      0.63      4.57      0.01         0.01
  102                         1.80      2.09      1.81      1.45         1.10
  60                          1.54      1.54      1.64      0.05         0.05
  525                         0.01      0.01      4.37      0.01         0.01
  504                         0.01      0.01      4.37      0.01         0.01
  322                         1.49      1.49      1.56      0.01         0.01
  340                         0.99      0.99      1.04      0.25         0.23
  315                         1.68      1.68      1.70      0.01         0.01
  255                         0.51      0.51      0.69      0.01         0.01
  403                         0.01      0.01      4.30      0.01         0.01
  337                         1.46      1.46      1.62      0.01         0.01
  38                          1.78      1.90      1.78      1.04         0.79
  76                          2.12      2.12      2.13      0.15         0.17
  400                         0.01      0.01      4.16      0.01         0.01
  198                         1.99      1.99      2.05      0.01         0.01
  476                         0.49      0.49      0.80      0.01         0.01
  220                         1.14      1.14      1.20      0.01         0.01
  481                         0.30      0.30      4.46      0.01         0.01
  385                         1.06      1.06      4.50      0.01         0.01
  279                         1.10      1.10      1.15      0.02         0.01
  240                         0.93      0.93      1.12      0.01         0.01
  353                         0.76      0.76      4.60      0.01         0.01
  239                         0.93      0.93      1.08      0.01         0.01
  10                          1.07      1.07      1.19      0.04         0.01
  355                         0.75      0.76      4.51      0.02         0.01
  11                          1.07      1.07      1.29      0.01         0.01
  69                          1.37      1.37      1.54      0.01         0.01
  61                          1.40      1.40      1.54      0.16         0.15
  103                         2.05      2.05      2.09      1.11         1.04
  522                         0.01      0.01      4.33      0.01         0.01
  323                         1.45      1.45      1.49      0.01         0.01
  338                         0.95      0.98      0.99      0.41         0.33
  314                         1.66      1.66      1.68      0.01         0.01
  256                         0.51      0.51      0.73      0.01         0.01
  520                         0.01      0.01      4.50      0.01         0.01
  401                         0.01      0.01      4.50      0.01         0.01
  37                          1.90      1.93      1.90      0.87         0.76
  336                         1.43      1.47      1.46      0.33         0.20
  75                          2.10      2.10      2.12      0.08         0.08
  398                         0.01      0.01      4.19      0.01         0.01
  199                         1.93      1.93      1.99      0.01         0.01
  229                         1.00      1.00      1.14      0.01         0.01
  221                         0.59      0.59      0.82      0.01         0.01
  238                         0.91      0.91      1.07      0.01         0.01
  354                         0.77      0.77      4.56      0.01         0.01
  388                         0.83      0.83      4.58      0.01         0.01
  384                         0.88      0.88      1.13      0.01         0.01
  356                         0.76      0.76      4.61      0.01         0.01
  237                         1.13      1.13      1.29      0.01         0.01
  67                          1.27      1.27      1.37      0.01         0.01
  431                         1.16      1.16      1.61      0.01         0.01
  63                          1.91      1.91      2.05      0.06         0.08
  62                          1.87      1.87      1.98      0.01         0.01
  521                         0.01      0.01      4.36      0.01         0.01
  503                         0.07      0.07      4.30      0.01         0.01
  324                         1.38      1.38      1.45      0.01         0.02
  523                         0.01      0.01      4.56      0.01         0.01
  506                         0.01      0.01      4.30      0.01         0.01
  312                         1.64      1.64      1.66      0.01         0.01
  258                         0.54      0.54      0.72      0.01         0.01
  518                         0.16      0.16      4.55      0.01         0.01
  399                         0.01      0.01      4.55      0.01         0.01
  36                          1.93      1.95      1.93      0.71         0.63
  335                         1.46      1.62      1.47      0.97         0.72
  74                          2.09      2.09      2.10      0.10         0.09
  396                         0.01      0.01      4.20      0.01         0.01
  222                         1.87      1.87      1.93      0.01         0.01
  228                         0.75      0.75      0.99      0.02         0.01
  236                         1.13      1.13      1.27      0.01         0.01
  66                          1.45      1.45      1.80      0.01         0.01
  65                          1.40      1.40      1.82      0.01         0.01
  64                          1.78      1.80      1.91      0.18         0.12
  517                         0.18      0.18      4.42      0.01         0.01
  325                         1.34      1.34      1.38      0.07         0.04
  313                         1.62      1.62      1.64      0.01         0.01
  259                         0.54      0.54      0.75      0.01         0.01
  516                         0.18      0.18      4.59      0.01         0.01
  397                         0.01      0.01      4.59      0.01         0.01
  34                          1.94      1.94      1.95      0.46         0.44
  334                         1.47      1.47      1.62      0.01         0.01
  73                          2.07      2.07      2.09      0.03         0.04
  394                         0.01      0.01      4.21      0.01         0.01
  225                         1.81      1.81      1.87      0.01         0.01
  480                         0.01      0.01      4.47      0.01         0.01
  389                         0.83      0.83      4.53      0.01         0.01
  234                         1.21      1.21      1.45      0.01         0.01
  386                         0.99      0.99      4.61      0.01         0.01
  1                           1.41      1.41      1.64      0.17         0.20
  387                         0.92      0.92      4.51      0.01         0.01
  515                         0.24      0.24      4.43      0.01         0.01
  502                         0.16      0.16      4.38      0.01         0.01
  326                         1.31      1.31      1.34      0.01         0.01
  311                         1.60      1.60      1.62      0.01         0.01
  260                         0.56      0.56      0.76      0.01         0.01
  514                         0.24      0.24      4.61      0.01         0.01
  395                         0.01      0.01      4.61      0.01         0.01
  33                          1.88      1.88      1.94      0.05         0.05
  333                         1.41      1.41      1.47      0.05         0.05
  72                          2.05      2.05      2.07      0.01         0.03
  478                         0.35      0.59      0.68      0.34         0.05
  392                         0.01      0.01      4.21      0.01         0.01
  226                         1.74      1.74      1.81      0.01         0.01
  513                         0.27      0.27      4.44      0.01         0.01
  327                         1.28      1.28      1.31      0.01         0.01
  507                         0.17      0.17      4.36      0.01         0.01
  310                         1.58      1.58      1.60      0.01         0.01
  261                         0.57      0.57      0.77      0.01         0.01
  512                         0.27      0.27      4.63      0.01         0.01
  393                         0.01      0.01      4.63      0.01         0.01
  32                          1.75      1.75      1.88      0.01         0.01
  332                         1.31      1.31      1.41      0.01         0.01
  71                          2.04      2.04      2.05      0.01         0.03
  227                         1.56      1.56      1.74      0.01         0.01
  511                         0.27      0.27      4.44      0.01         0.01
  501                         0.27      0.27      4.43      0.01         0.01
  329                         1.25      1.25      1.28      0.01         0.01
  309                         1.56      1.56      1.58      0.09         0.08
  262                         0.58      0.58      0.78      0.01         0.01
  510                         0.27      0.27      4.62      0.01         0.01
  31                          1.70      1.70      1.75      0.01         0.01
  331                         1.16      1.16      1.31      0.01         0.01
  479                         0.01      0.01      4.29      0.01         0.01
  70                          2.01      2.01      2.04      0.03         0.03
  390                         0.01      0.01      4.26      0.01         0.01
  273                         0.01      0.01      1.28      0.01         0.01
  509                         0.29      0.29      4.45      0.01         0.01
  500                         0.28      0.28      4.43      0.01         0.01
  299                         1.22      1.22      1.25      0.02         0.01
  508                         0.24      0.24      4.39      0.01         0.01
  308                         1.54      1.54      1.56      0.07         0.04
  263                         0.62      0.62      0.80      0.01         0.01
  391                         0.01      0.01      4.62      0.01         0.01
  30                          1.64      1.64      1.70      0.01         0.01
  330                         1.03      1.03      1.16      0.01         0.01
  29                          1.95      1.95      2.01      0.05         0.02
  495                         0.30      0.30      4.46      0.01         0.01
  486                         0.30      0.30      4.43      0.01         0.01
  298                         1.21      1.38      1.22      0.30         0.07
  307                         1.53      1.53      1.54      0.06         0.02
  264                         0.65      0.75      0.82      0.19         0.01
  300                         1.21      1.21      1.64      0.01         0.01
  496                         0.30      0.30      4.56      0.01         0.01
  372                         0.30      0.30      4.36      0.01         0.01
  303                         1.89      1.89      1.95      0.01         0.01
  497                         0.37      0.37      4.56      0.01         0.01
  487                         0.32      0.32      4.53      0.01         0.01
  297                         1.32      1.36      1.38      0.31         0.23
  282                         1.50      1.50      1.53      0.01         0.01
  265                         0.71      1.01      0.80      0.52         0.19
  301                         1.10      1.10      1.21      0.01         0.01
  302                         0.72      1.14      0.75      0.75         0.24
  304                         1.84      1.84      1.89      0.01         0.01
  272                         0.55      0.55      1.32      0.01         0.01
  498                         0.58      0.58      4.70      0.01         0.01
  488                         0.34      0.34      4.59      0.01         0.01
  283                         1.47      1.47      1.50      0.01         0.01
  281                         1.46      1.46      1.49      0.07         0.02
  499                         0.58      0.58      4.58      0.01         0.01
  296                         1.01      1.16      1.14      0.24         0.05
  305                         1.79      1.79      1.84      0.01         0.01
  113                         1.43      1.43      1.46      0.09         0.05
  285                         1.43      1.43      1.47      0.01         0.01
  293                         1.77      1.78      1.79      0.33         0.19
  294                         1.06      1.06      1.15      0.01         0.01
  494                         0.59      0.59      4.57      0.01         0.01
  489                         0.40      0.40      4.47      0.01         0.01
  101                         1.40      1.42      1.43      0.13         0.05
  286                         1.35      1.35      1.43      0.01         0.01
  280                         0.95      0.95      1.09      0.01         0.01
  493                         0.45      0.45      4.40      0.01         0.01
  287                         0.84      0.84      1.06      0.01         0.01
  288                         1.05      1.28      1.21      0.30         0.04
  292                         1.74      1.75      1.78      0.18         0.10
  90                          1.37      1.42      1.42      0.15         0.06
  485                         0.38      0.38      4.40      0.01         0.01
  484                         0.43      0.43      4.40      0.01         0.01
  124                         0.73      0.76      0.83      0.04         0.01
  490                         0.51      0.51      4.37      0.01         0.01
  278                         1.27      1.27      1.35      0.01         0.01
  491                         0.60      0.60      4.38      0.01         0.01
  290                         1.70      1.70      1.75      0.01         0.01
  271                         0.78      0.78      1.13      0.01         0.01
  289                         1.51      1.66      1.53      0.56         0.35
  492                         0.68      0.68      4.57      0.01         0.01
  440                         0.76      0.76      0.95      0.01         0.01
  79                          1.31      1.31      1.42      0.01         0.01
  268                         1.23      1.23      1.27      0.01         0.01
  135                         0.86      0.86      1.04      0.01         0.01
  224                         1.62      1.67      1.66      0.64         0.56
  317                         1.21      1.21      1.34      0.01         0.01
  291                         1.64      1.64      1.70      0.08         0.08
  68                          1.26      1.26      1.31      0.01         0.02
  410                         0.53      0.53      4.40      0.01         0.01
  257                         1.20      1.37      1.23      0.38         0.16
  146                         0.73      0.73      0.91      0.01         0.01
  482                         0.97      0.97      4.58      0.01         0.01
  212                         1.67      1.68      1.67      1.00         0.87
  190                         1.28      1.28      1.47      0.06         0.04
  328                         1.60      1.60      1.64      0.01         0.01
  519                         0.81      0.81      0.99      0.01         0.01
  477                         0.82      0.82      0.92      0.01         0.01
  306                         1.12      1.12      1.21      0.01         0.01
  447                         0.79      0.79      0.97      0.01         0.01
  57                          1.21      1.21      1.26      0.04         0.03
  246                         1.34      1.34      1.37      0.26         0.25
  157                         0.97      0.97      1.14      0.01         0.01
  24                          1.19      1.28      1.28      0.60         0.49
  201                         1.62      1.62      1.68      0.38         0.36
  339                         1.57      1.57      1.60      0.01         0.01
  295                         1.07      1.07      1.12      0.06         0.01
  2                           0.82      0.82      1.00      0.07         0.01
  46                          1.12      1.12      1.21      0.01         0.02
  383                         0.81      0.81      0.97      0.01         0.01
  235                         1.32      1.39      1.34      0.94         0.78
  168                         1.02      1.04      1.13      0.21         0.16
  13                          1.58      1.58      1.62      0.26         0.25
  112                         1.50      1.61      1.57      0.36         0.22
  266                         0.80      0.80      1.00      0.01         0.01
  284                         1.05      1.05      1.07      0.06         0.01
  454                         0.82      0.82      1.01      0.01         0.01
  35                          0.99      0.99      1.12      0.07         0.03
  179                         1.23      1.23      1.39      0.10         0.11
  367                         1.53      1.53      1.58      0.01         0.01
  350                         1.53      1.53      1.58      0.01         0.01
  483                         0.92      0.92      1.01      0.01         0.02
  233                         1.25      1.25      1.61      0.01         0.02
  232                         0.92      0.92      1.08      0.05         0.01
  267                         0.83      0.92      1.00      0.16         0.01
  223                         1.00      1.25      1.05      0.47         0.18
  369                         0.82      0.82      0.99      0.01         0.01
  373                         1.17      1.17      1.23      0.01         0.02
  270                         0.92      0.92      1.25      0.01         0.01
  269                         1.01      1.01      1.25      0.20         0.20
  

  Analysis begun on:  Wed Dec 22 20:07:23 2021
  Analysis ended on:  Wed Dec 22 20:07:24 2021
  Total elapsed time: 00:00:01