
  EPA STORM WATER MANAGEMENT MODEL - VERSION 5.1 (Build 5.3.0.dev0)
  --------------------------------------------------------------

  
  *********************************************************
  NOTE: The summary statistics displayed in this report are
  based on results found at every computational time step,  
  not just on results from each reporting time step.
  *********************************************************
  
  ****************
  Analysis Options
  ****************
  Flow Units ............... CMS
  Process Models:
    Rainfall/Runoff ........ YES
    RDII ................... NO
    Snowmelt ............... NO
    Groundwater ............ NO
    Flow Routing ........... YES
    Ponding Allowed ........ YES
    Water Quality .......... NO
  Infiltration Method ...... HORTON
  Flow Routing Method ...... DYNWAVE
  Surcharge Method ......... EXTRAN
  Starting Date ............ 12/15/2017 00:00:00
  Ending Date .............. 12/15/2017 06:00:00
  Antecedent Dry Days ...... 0.0
  Report Time Step ......... 00:01:00
  Wet Time Step ............ 00:01:00
  Dry Time Step ............ 06:00:00
  Routing Time Step ........ 30.00 sec
  Variable Time Step ....... YES
  Maximum Trials ........... 8
  Number of Threads ........ 1
  Head Tolerance ........... 0.001500 m
  
  
  **************************        Volume         Depth
  Runoff Quantity Continuity     hectare-m            mm
  **************************     ---------       -------
  Total Precipitation ......        11.436        23.286
  Evaporation Loss .........         0.000         0.000
  Infiltration Loss ........         1.331         2.710
  Surface Runoff ...........         8.976        18.277
  Final Storage ............         1.130         2.300
  Continuity Error (%) .....        -0.011
  
  
  **************************        Volume        Volume
  Flow Routing Continuity        hectare-m      10^6 ltr
  **************************     ---------     ---------
  Dry Weather Inflow .......         0.000         0.000
  Wet Weather Inflow .......         8.980        89.803
  Groundwater Inflow .......         0.000         0.000
  RDII Inflow ..............         0.000         0.000
  External Inflow ..........         0.000         0.000
  External Outflow .........         8.930        89.297
  Flooding Loss ............         0.000         0.000
  Evaporation Loss .........         0.000         0.000
  Exfiltration Loss ........         0.000         0.000
  Initial Stored Volume ....         0.000         0.000
  Final Stored Volume ......         0.047         0.472
  Continuity Error (%) .....         0.038
  
  
  *************************
  Highest Continuity Errors
  *************************
  Node 247 (-31.26%)
  Node 24 (4.80%)
  Node 22 (-3.65%)
  Node 55 (-3.32%)
  Node 42 (-3.04%)
  
  
  ***************************
  Time-Step Critical Elements
  ***************************
  Link 26 (41.71%)
  Link 163 (8.95%)
  Link 223 (8.81%)
  Link 136 (2.81%)
  Link 123 (2.48%)
  
  
  ********************************
  Highest Flow Instability Indexes
  ********************************
  Link 359 (28)
  Link 375 (23)
  Link 496 (22)
  Link 420 (22)
  Link 86 (20)
  
  
  *************************
  Routing Time Step Summary
  *************************
  Minimum Time Step           :     0.50 sec
  Average Time Step           :    10.28 sec
  Maximum Time Step           :    30.00 sec
  Percent in Steady State     :     0.65
  Average Iterations per Step :     5.00
  Percent Not Converging      :    39.89
  
  
  ***************************
  Subcatchment Runoff Summary
  ***************************
  
  ------------------------------------------------------------------------------------------------------------------------------
                            Total      Total      Total      Total     Imperv       Perv      Total       Total     Peak  Runoff
                           Precip      Runon       Evap      Infil     Runoff     Runoff     Runoff      Runoff   Runoff   Coeff
  Subcatchment                 mm         mm         mm         mm         mm         mm         mm    10^6 ltr      CMS
  ------------------------------------------------------------------------------------------------------------------------------
  532                       23.29       0.00       0.00       2.46      17.57       1.12      18.69        0.39     0.16   0.803
  533                       23.29       0.00       0.00       2.46      17.57       1.12      18.69        0.27     0.11   0.803
  534                       23.29       0.00       0.00       2.46      17.57       1.12      18.69        0.31     0.12   0.803
  535                       23.29       0.00       0.00       2.46      17.57       1.12      18.69        0.37     0.15   0.803
  536                       23.29       0.00       0.00       2.46      17.57       1.12      18.69        0.35     0.14   0.803
  537                       23.29       0.00       0.00       2.46      17.57       1.12      18.69        0.34     0.14   0.803
  538                       23.29       0.00       0.00       2.46      17.57       1.12      18.69        0.33     0.14   0.803
  539                       23.29       0.00       0.00       2.46      17.57       1.12      18.69        0.32     0.13   0.803
  540                       23.29       0.00       0.00       2.46      17.57       1.12      18.69        0.60     0.24   0.803
  541                       23.29       0.00       0.00       2.46      17.57       1.12      18.69        0.58     0.24   0.803
  542                       23.29       0.00       0.00       2.46      17.57       1.12      18.69        0.28     0.12   0.803
  543                       23.29       0.00       0.00       2.46      17.57       1.12      18.69        0.47     0.19   0.803
  544                       23.29       0.00       0.00       2.46      17.57       1.12      18.69        1.08     0.44   0.803
  545                       23.29       0.00       0.00       2.46      17.57       1.12      18.69        0.44     0.18   0.803
  546                       23.29       0.00       0.00       2.46      17.57       1.12      18.69        0.43     0.18   0.803
  547                       23.29       0.00       0.00       2.46      17.57       1.12      18.69        0.38     0.15   0.803
  548                       23.29       0.00       0.00       2.46      17.57       1.12      18.69        0.31     0.12   0.803
  549                       23.29       0.00       0.00       2.46      17.57       1.12      18.69        0.43     0.18   0.803
  550                       23.29       0.00       0.00       2.46      17.57       1.12      18.69        0.44     0.18   0.803
  551                       23.29       0.00       0.00       2.46      17.57       1.12      18.69        0.21     0.09   0.803
  552                       23.29       0.00       0.00       2.46      17.57       1.12      18.69        0.22     0.09   0.803
  553                       23.29       0.00       0.00       2.46      17.57       1.12      18.69        0.21     0.09   0.803
  554                       23.29       0.00       0.00       2.46      17.57       1.12      18.69        0.21     0.09   0.803
  555                       23.29       0.00       0.00       2.46      17.57       1.12      18.69        0.21     0.09   0.803
  556                       23.29       0.00       0.00       2.46      17.57       1.12      18.69        0.21     0.09   0.803
  557                       23.29       0.00       0.00       2.46      17.57       1.12      18.69        0.21     0.09   0.803
  558                       23.29       0.00       0.00       2.46      17.57       1.12      18.69        0.43     0.17   0.803
  559                       23.29       0.00       0.00       2.46      17.57       1.12      18.69        0.22     0.09   0.803
  560                       23.29       0.00       0.00       2.46      17.57       1.12      18.69        0.41     0.17   0.803
  561                       23.29       0.00       0.00       2.46      17.57       1.12      18.69        0.43     0.18   0.803
  562                       23.29       0.00       0.00       2.46      17.57       1.12      18.69        0.37     0.15   0.803
  563                       23.29       0.00       0.00       2.46      17.57       1.12      18.69        0.67     0.27   0.803
  564                       23.29       0.00       0.00       2.46      17.57       1.12      18.69        0.63     0.26   0.803
  565                       23.29       0.00       0.00       2.46      17.57       1.12      18.69        0.60     0.25   0.803
  566                       23.29       0.00       0.00       2.46      17.57       1.12      18.69        0.53     0.22   0.803
  567                       23.29       0.00       0.00       2.46      17.57       1.12      18.69        0.48     0.19   0.803
  568                       23.29       0.00       0.00       2.46      17.57       1.12      18.69        0.43     0.18   0.803
  569                       23.29       0.00       0.00       2.46      17.57       1.12      18.69        0.44     0.18   0.803
  570                       23.29       0.00       0.00       2.46      17.57       1.12      18.69        0.38     0.15   0.803
  571                       23.29       0.00       0.00       2.46      17.57       1.12      18.69        0.66     0.27   0.803
  572                       23.29       0.00       0.00       2.46      17.57       1.12      18.69        0.31     0.12   0.803
  573                       23.29       0.00       0.00       2.46      17.57       1.12      18.69        0.30     0.12   0.803
  574                       23.29       0.00       0.00       2.46      17.57       1.12      18.69        0.29     0.12   0.803
  575                       23.29       0.00       0.00       2.46      17.57       1.12      18.69        0.27     0.11   0.803
  576                       23.29       0.00       0.00       2.46      17.57       1.12      18.69        0.26     0.11   0.803
  577                       23.29       0.00       0.00       2.46      17.57       1.12      18.69        0.24     0.10   0.803
  578                       23.29       0.00       0.00       2.46      17.57       1.12      18.69        0.24     0.10   0.803
  579                       23.29       0.00       0.00       2.46      17.57       1.12      18.69        0.45     0.18   0.803
  580                       23.29       0.00       0.00       2.46      17.57       1.12      18.69        0.21     0.08   0.803
  581                       23.29       0.00       0.00       2.46      17.57       1.12      18.69        0.37     0.15   0.803
  582                       23.29       0.00       0.00       2.46      17.57       1.12      18.69        0.33     0.14   0.803
  583                       23.29       0.00       0.00       2.46      17.57       1.12      18.69        0.57     0.23   0.803
  584                       23.29       0.00       0.00       2.46      17.57       1.12      18.69        0.56     0.23   0.803
  585                       23.29       0.00       0.00       2.46      17.57       1.12      18.69        0.49     0.20   0.803
  586                       23.29       0.00       0.00       2.46      17.57       1.12      18.69        0.36     0.15   0.803
  587                       23.29       0.00       0.00       2.46      17.57       1.12      18.69        0.35     0.14   0.803
  588                       23.29       0.00       0.00       2.46      17.57       1.12      18.69        0.36     0.14   0.803
  589                       23.29       0.00       0.00       2.46      17.57       1.12      18.69        0.35     0.14   0.803
  590                       23.29       0.00       0.00       2.46      17.57       1.12      18.69        0.35     0.14   0.803
  591                       23.29       0.00       0.00       2.46      17.57       1.12      18.69        0.36     0.15   0.803
  592                       23.29       0.00       0.00       2.46      17.57       1.12      18.69        0.36     0.15   0.803
  593                       23.29       0.00       0.00       2.46      17.57       1.12      18.69        0.37     0.15   0.803
  594                       23.29       0.00       0.00       2.46      17.57       1.12      18.69        0.36     0.15   0.803
  595                       23.29       0.00       0.00       2.46      17.57       1.12      18.69        0.37     0.15   0.803
  596                       23.29       0.00       0.00       2.46      17.57       1.12      18.69        0.37     0.15   0.803
  597                       23.29       0.00       0.00       2.46      17.57       1.12      18.69        0.37     0.15   0.803
  598                       23.29       0.00       0.00       2.46      17.57       1.12      18.69        0.38     0.16   0.803
  599                       23.29       0.00       0.00       2.46      17.57       1.12      18.69        0.39     0.16   0.803
  600                       23.29       0.00       0.00       2.46      17.57       1.12      18.69        0.38     0.16   0.803
  601                       23.29       0.00       0.00       2.46      17.57       1.12      18.69        0.40     0.16   0.803
  602                       23.29       0.00       0.00       2.46      17.57       1.12      18.69        0.39     0.16   0.803
  603                       23.29       0.00       0.00       2.46      17.57       1.12      18.69        0.40     0.16   0.803
  604                       23.29       0.00       0.00       2.46      17.57       1.12      18.69        0.41     0.17   0.803
  605                       23.29       0.00       0.00       2.46      17.57       1.12      18.69        0.38     0.15   0.803
  606                       23.29       0.00       0.00       2.46      17.57       1.12      18.69        0.39     0.16   0.803
  607                       23.29       0.00       0.00       2.46      17.57       1.12      18.69        0.40     0.16   0.803
  608                       23.29       0.00       0.00       2.46      17.57       1.12      18.69        0.51     0.21   0.803
  609                       23.29       0.00       0.00       2.46      17.57       1.12      18.69        0.52     0.21   0.803
  610                       23.29       0.00       0.00       2.46      17.57       1.12      18.69        0.40     0.16   0.803
  611                       23.29       0.00       0.00       2.46      17.57       1.12      18.69        0.40     0.16   0.803
  612                       23.29       0.00       0.00       2.46      17.57       1.12      18.69        0.43     0.18   0.803
  613                       23.29       0.00       0.00       2.46      17.57       1.12      18.69        0.34     0.14   0.803
  614                       23.29       0.00       0.00       2.46      17.57       1.12      18.69        0.54     0.22   0.803
  615                       23.29       0.00       0.00       2.46      17.57       1.12      18.69        0.67     0.27   0.803
  616                       23.29       0.00       0.00       2.46      17.57       1.12      18.69        0.34     0.14   0.803
  617                       23.29       0.00       0.00       2.46      17.57       1.12      18.69        0.33     0.14   0.803
  618                       23.29       0.00       0.00       2.46      17.57       1.12      18.69        0.34     0.14   0.803
  619                       23.29       0.00       0.00       2.46      17.57       1.12      18.69        0.34     0.14   0.803
  620                       23.29       0.00       0.00       2.46      17.57       1.12      18.69        0.33     0.14   0.803
  621                       23.29       0.00       0.00       2.46      17.57       1.12      18.69        0.34     0.14   0.803
  622                       23.29       0.00       0.00       2.46      17.57       1.12      18.69        0.33     0.14   0.803
  623                       23.29       0.00       0.00       2.46      17.57       1.12      18.69        0.34     0.14   0.803
  624                       23.29       0.00       0.00       2.46      17.57       1.12      18.69        0.34     0.14   0.803
  625                       23.29       0.00       0.00       2.46      17.57       1.12      18.69        0.34     0.14   0.803
  626                       23.29       0.00       0.00       2.46      17.57       1.12      18.69        0.34     0.14   0.803
  627                       23.29       0.00       0.00       2.46      17.57       1.12      18.69        0.34     0.14   0.803
  628                       23.29       0.00       0.00       2.46      17.57       1.12      18.69        0.34     0.14   0.803
  629                       23.29       0.00       0.00       2.46      17.57       1.12      18.69        0.35     0.14   0.803
  630                       23.29       0.00       0.00       2.46      17.57       1.12      18.69        0.33     0.13   0.803
  631                       23.29       0.00       0.00       2.46      17.57       1.12      18.69        0.34     0.14   0.803
  632                       23.29       0.00       0.00       2.46      17.57       1.12      18.69        0.34     0.14   0.803
  633                       23.29       0.00       0.00       2.46      17.57       1.12      18.69        0.36     0.15   0.803
  634                       23.29       0.00       0.00       2.46      17.57       1.12      18.69        0.33     0.14   0.803
  635                       23.29       0.00       0.00       2.46      17.57       1.12      18.69        0.33     0.14   0.803
  636                       23.29       0.00       0.00       2.46      17.57       1.12      18.69        0.32     0.13   0.803
  637                       23.29       0.00       0.00       2.46      17.57       1.12      18.69        0.36     0.15   0.803
  638                       23.29       0.00       0.00       2.46      17.57       1.12      18.69        0.54     0.22   0.803
  639                       23.29       0.00       0.00       2.46      17.57       1.12      18.69        0.42     0.17   0.803
  640                       23.29       0.00       0.00       2.46      17.57       1.12      18.69        0.34     0.14   0.803
  641                       23.29       0.00       0.00       2.46      17.57       1.12      18.69        0.59     0.24   0.803
  642                       23.29       0.00       0.00       2.46      17.57       1.12      18.69        0.33     0.13   0.803
  643                       23.29       0.00       0.00       2.46      17.57       1.12      18.69        0.33     0.14   0.803
  644                       23.29       0.00       0.00       2.46      17.57       1.12      18.69        0.33     0.14   0.803
  645                       23.29       0.00       0.00       2.46      17.57       1.12      18.69        0.33     0.13   0.803
  646                       23.29       0.00       0.00       2.46      17.57       1.12      18.69        0.33     0.13   0.803
  647                       23.29       0.00       0.00       2.46      17.57       1.12      18.69        0.33     0.13   0.803
  648                       23.29       0.00       0.00       2.46      17.57       1.12      18.69        0.33     0.13   0.803
  649                       23.29       0.00       0.00       2.46      17.57       1.12      18.69        0.33     0.13   0.803
  650                       23.29       0.00       0.00       2.46      17.57       1.12      18.69        0.32     0.13   0.803
  651                       23.29       0.00       0.00       2.46      17.57       1.12      18.69        0.33     0.13   0.803
  652                       23.29       0.00       0.00       2.46      17.57       1.12      18.69        0.33     0.13   0.803
  653                       23.29       0.00       0.00       2.46      17.57       1.12      18.69        0.33     0.13   0.803
  654                       23.29       0.00       0.00       2.46      17.57       1.12      18.69        0.33     0.13   0.803
  655                       23.29       0.00       0.00       2.46      17.57       1.12      18.69        0.33     0.13   0.803
  656                       23.29       0.00       0.00       2.46      17.57       1.12      18.69        0.33     0.13   0.803
  657                       23.29       0.00       0.00       2.46      17.57       1.12      18.69        0.33     0.13   0.803
  658                       23.29       0.00       0.00       2.46      17.57       1.12      18.69        0.33     0.13   0.803
  659                       23.29       0.00       0.00       2.46      17.57       1.12      18.69        0.33     0.13   0.803
  660                       23.29       0.00       0.00       2.46      17.57       1.12      18.69        0.33     0.13   0.803
  661                       23.29       0.00       0.00       2.46      17.57       1.12      18.69        0.33     0.14   0.803
  662                       23.29       0.00       0.00       2.46      17.57       1.12      18.69        0.50     0.20   0.803
  663                       23.29       0.00       0.00       2.46      17.57       1.12      18.69        0.33     0.14   0.803
  664                       23.29       0.00       0.00       2.46      17.57       1.12      18.69        1.57     0.64   0.803
  665                       23.29       0.00       0.00       2.46      17.57       1.12      18.69        1.42     0.58   0.803
  666                       23.29       0.00       0.00       2.46      17.57       1.12      18.69        1.12     0.46   0.803
  667                       23.29       0.00       0.00       2.46      17.57       1.12      18.69        0.60     0.24   0.803
  668                       23.29       0.00       0.00       2.46      17.57       1.12      18.69        0.49     0.20   0.803
  669                       23.29       0.00       0.00       2.46      17.57       1.12      18.69        0.50     0.20   0.803
  670                       23.29       0.00       0.00       2.46      17.57       1.12      18.69        0.49     0.20   0.803
  671                       23.29       0.00       0.00       2.46      17.57       1.12      18.69        0.49     0.20   0.803
  672                       23.29       0.00       0.00       2.46      17.57       1.12      18.69        0.75     0.30   0.803
  673                       23.29       0.00       0.00       2.46      17.57       1.12      18.69        0.64     0.26   0.803
  674                       23.29       0.00       0.00       2.46      17.57       1.12      18.69        0.93     0.38   0.803
  675                       23.29       0.00       0.00       2.46      17.57       1.12      18.69        0.88     0.36   0.803
  676                       23.29       0.00       0.00       2.46      17.57       1.12      18.69        0.85     0.35   0.803
  677                       23.29       0.00       0.00       2.46      17.57       1.12      18.69        0.75     0.30   0.803
  678                       23.29       0.00       0.00       2.46      17.57       1.12      18.69        0.77     0.31   0.803
  679                       23.29       0.00       0.00       2.46      17.57       1.12      18.69        0.66     0.27   0.803
  680                       23.29       0.00       0.00       2.46      17.57       1.12      18.69        0.28     0.11   0.803
  681                       23.29       0.00       0.00       2.46      17.57       1.12      18.69        0.50     0.21   0.803
  682                       23.29       0.00       0.00       2.46      17.57       1.12      18.69        0.41     0.17   0.803
  683                       23.29       0.00       0.00       2.46      17.57       1.12      18.69        0.41     0.17   0.803
  684                       23.29       0.00       0.00       2.46      17.57       1.12      18.69        0.66     0.27   0.803
  685                       23.29       0.00       0.00       2.46      17.57       1.12      18.69        0.63     0.26   0.803
  686                       23.29       0.00       0.00       2.46      17.57       1.12      18.69        0.80     0.32   0.803
  687                       23.29       0.00       0.00       9.86       4.43       2.50       6.93        1.25     0.44   0.297
  688                       23.29       0.00       0.00       2.46      17.57       1.12      18.69        0.37     0.15   0.803
  689                       23.29       0.00       0.00       2.46      17.57       1.12      18.69        0.35     0.14   0.803
  690                       23.29       0.00       0.00       2.46      17.57       1.12      18.69        0.87     0.35   0.803
  691                       23.29       0.00       0.00       2.46      17.57       1.12      18.69        1.11     0.45   0.803
  692                       23.29       0.00       0.00       2.46      17.57       1.12      18.69        0.62     0.25   0.803
  693                       23.29       0.00       0.00       2.46      17.57       1.12      18.69        0.63     0.26   0.803
  694                       23.29       0.00       0.00       2.46      17.57       1.12      18.69        1.14     0.46   0.803
  695                       23.29       0.00       0.00       2.46      17.57       1.12      18.69        0.25     0.10   0.803
  696                       23.29       0.00       0.00       2.46      17.57       1.12      18.69        0.34     0.14   0.803
  697                       23.29       0.00       0.00       2.46      17.57       1.12      18.69        0.40     0.16   0.803
  698                       23.29       0.00       0.00       2.46      17.57       1.12      18.69        0.69     0.28   0.803
  699                       23.29       0.00       0.00       2.46      17.57       1.12      18.69        0.54     0.22   0.803
  700                       23.29       0.00       0.00       2.46      17.57       1.12      18.69        0.68     0.28   0.803
  701                       23.29       0.00       0.00       2.46      17.57       1.12      18.69        0.51     0.21   0.803
  702                       23.29       0.00       0.00       2.46      17.57       1.12      18.69        0.31     0.13   0.803
  703                       23.29       0.00       0.00       2.46      17.57       1.12      18.69        0.49     0.20   0.803
  704                       23.29       0.00       0.00       2.46      17.57       1.12      18.69        0.50     0.21   0.803
  705                       23.29       0.00       0.00       2.46      17.57       1.12      18.69        0.27     0.11   0.803
  706                       23.29       0.00       0.00       2.46      17.57       1.12      18.69        0.22     0.09   0.803
  707                       23.29       0.00       0.00       2.46      17.57       1.12      18.69        0.44     0.18   0.803
  708                       23.29       0.00       0.00       2.46      17.57       1.12      18.69        0.61     0.25   0.803
  709                       23.29       0.00       0.00       2.46      17.57       1.12      18.69        0.29     0.12   0.803
  710                       23.29       0.00       0.00       2.46      17.57       1.12      18.69        0.19     0.08   0.803
  711                       23.29       0.00       0.00       2.46      17.57       1.12      18.69        0.16     0.06   0.803
  712                       23.29       0.00       0.00       2.46      17.57       1.12      18.69        0.46     0.19   0.803
  713                       23.29       0.00       0.00       2.46      17.57       1.12      18.69        0.19     0.08   0.803
  714                       23.29       0.00       0.00       2.46      17.57       1.12      18.69        0.19     0.08   0.803
  715                       23.29       0.00       0.00       2.46      17.57       1.12      18.69        0.19     0.08   0.803
  716                       23.29       0.00       0.00       2.46      17.57       1.12      18.69        0.19     0.08   0.803
  717                       23.29       0.00       0.00       2.46      17.57       1.12      18.69        0.19     0.08   0.803
  718                       23.29       0.00       0.00       2.46      17.57       1.12      18.69        0.28     0.11   0.803
  719                       23.29       0.00       0.00       2.46      17.57       1.12      18.69        0.28     0.11   0.803
  720                       23.29       0.00       0.00       2.46      17.57       1.12      18.69        0.28     0.11   0.803
  721                       23.29       0.00       0.00       2.46      17.57       1.12      18.69        0.28     0.11   0.803
  722                       23.29       0.00       0.00       2.46      17.57       1.12      18.69        0.28     0.11   0.803
  723                       23.29       0.00       0.00       2.46      17.57       1.12      18.69        0.28     0.11   0.803
  724                       23.29       0.00       0.00       2.46      17.57       1.12      18.69        0.28     0.11   0.803
  725                       23.29       0.00       0.00       2.46      17.57       1.12      18.69        0.28     0.11   0.803
  726                       23.29       0.00       0.00       2.46      17.57       1.12      18.69        0.28     0.11   0.803
  727                       23.29       0.00       0.00       2.46      17.57       1.12      18.69        0.28     0.11   0.803
  728                       23.29       0.00       0.00       2.46      17.57       1.12      18.69        0.28     0.11   0.803
  729                       23.29       0.00       0.00       2.46      17.57       1.12      18.69        0.28     0.11   0.803
  730                       23.29       0.00       0.00       2.46      17.57       1.12      18.69        0.28     0.11   0.803
  731                       23.29       0.00       0.00       2.46      17.57       1.12      18.69        0.28     0.11   0.803
  732                       23.29       0.00       0.00       2.46      17.57       1.12      18.69        0.28     0.11   0.803
  733                       23.29       0.00       0.00       2.46      17.57       1.12      18.69        0.28     0.11   0.803
  734                       23.29       0.00       0.00       2.46      17.57       1.12      18.69        0.28     0.11   0.803
  735                       23.29       0.00       0.00       2.46      17.57       1.12      18.69        0.28     0.11   0.803
  736                       23.29       0.00       0.00       2.46      17.57       1.12      18.69        0.28     0.11   0.803
  737                       23.29       0.00       0.00       2.46      17.57       1.12      18.69        0.28     0.11   0.803
  738                       23.29       0.00       0.00       2.46      17.57       1.12      18.69        0.28     0.11   0.803
  739                       23.29       0.00       0.00       2.46      17.57       1.12      18.69        0.28     0.11   0.803
  740                       23.29       0.00       0.00       2.46      17.57       1.12      18.69        0.28     0.11   0.803
  741                       23.29       0.00       0.00       2.46      17.57       1.12      18.69        0.28     0.11   0.803
  742                       23.29       0.00       0.00       2.46      17.57       1.12      18.69        0.28     0.11   0.803
  743                       23.29       0.00       0.00       2.46      17.57       1.12      18.69        0.28     0.11   0.803
  744                       23.29       0.00       0.00       2.46      17.57       1.12      18.69        0.19     0.08   0.803
  745                       23.29       0.00       0.00       0.00      17.57       2.81      20.37        0.31     0.12   0.875
  746                       23.29       0.00       0.00       0.00      17.57       2.81      20.37        0.31     0.12   0.875
  747                       23.29       0.00       0.00       0.00      17.57       2.81      20.37        0.41     0.16   0.875
  
  
  ******************
  Node Depth Summary
  ******************
  
  ---------------------------------------------------------------------------------
                                 Average  Maximum  Maximum  Time of Max    Reported
                                   Depth    Depth      HGL   Occurrence   Max Depth
  Node                 Type       Meters   Meters   Meters  days hr:min      Meters
  ---------------------------------------------------------------------------------
  1                    JUNCTION     0.72     1.56    18.41     0  01:52        1.56
  2                    JUNCTION     0.92     2.94    18.16     0  02:01        2.94
  3                    JUNCTION     0.46     1.66    18.16     0  02:04        1.66
  4                    JUNCTION     0.52     1.96    18.12     0  02:07        1.96
  5                    JUNCTION     0.54     2.01    18.12     0  02:06        2.01
  6                    JUNCTION     0.64     2.32    18.11     0  02:05        2.32
  7                    JUNCTION     0.73     2.56    18.10     0  02:03        2.56
  8                    JUNCTION     1.12     3.51    18.10     0  02:02        3.51
  9                    JUNCTION     1.09     3.43    18.11     0  02:02        3.43
  10                   JUNCTION     0.31     1.28    18.13     0  02:08        1.28
  11                   JUNCTION     0.55     1.56    18.18     0  02:16        1.56
  12                   JUNCTION     0.51     1.67    18.52     0  01:50        1.67
  13                   JUNCTION     0.38     1.54    18.11     0  02:07        1.54
  14                   JUNCTION     0.42     1.72    18.09     0  02:06        1.72
  15                   JUNCTION     0.52     2.04    18.08     0  02:01        2.04
  16                   JUNCTION     0.56     2.18    18.07     0  01:59        2.18
  17                   JUNCTION     0.59     2.33    18.06     0  01:57        2.33
  18                   JUNCTION     0.68     2.60    18.05     0  01:55        2.60
  19                   JUNCTION     0.74     2.87    18.02     0  01:53        2.87
  20                   JUNCTION     0.80     3.10    18.00     0  01:50        3.10
  21                   JUNCTION     0.22     1.20    18.05     0  01:52        1.20
  22                   JUNCTION     0.20     1.44    18.00     0  01:34        1.43
  23                   JUNCTION     0.14     1.15    18.00     0  01:49        1.15
  24                   JUNCTION     0.24     1.46    18.02     0  01:58        1.46
  25                   JUNCTION     0.31     1.29    18.14     0  01:58        1.29
  26                   JUNCTION     0.52     1.70    18.21     0  02:02        1.70
  27                   JUNCTION     0.57     1.87    18.25     0  01:59        1.87
  28                   JUNCTION     0.63     1.84    18.16     0  02:09        1.84
  29                   JUNCTION     0.77     2.32    18.15     0  02:05        2.32
  30                   JUNCTION     0.89     2.68    18.16     0  02:01        2.68
  31                   JUNCTION     0.62     2.05    18.17     0  01:58        2.05
  32                   JUNCTION     0.60     2.29    18.08     0  01:55        2.29
  33                   JUNCTION     0.63     2.45    18.04     0  01:53        2.45
  34                   JUNCTION     0.70     2.88    18.00     0  01:32        2.88
  35                   JUNCTION     0.74     3.01    17.99     0  01:48        3.00
  36                   JUNCTION     0.30     1.62    18.01     0  01:53        1.62
  37                   JUNCTION     0.84     3.25    18.00     0  01:45        3.25
  38                   JUNCTION     1.21     4.11    17.98     0  01:45        4.10
  39                   JUNCTION     1.04     3.81    17.98     0  01:48        3.80
  40                   JUNCTION     1.00     3.72    17.98     0  01:45        3.71
  41                   JUNCTION     0.82     3.27    18.00     0  01:32        3.25
  42                   JUNCTION     0.21     1.37    18.00     0  01:41        1.37
  43                   JUNCTION     0.59     1.90    18.25     0  01:50        1.90
  44                   JUNCTION     0.90     2.90    18.10     0  02:01        2.90
  45                   JUNCTION     1.41     4.09    18.07     0  01:59        4.09
  46                   JUNCTION     1.20     3.68    18.09     0  02:01        3.68
  47                   JUNCTION     1.50     4.27    18.05     0  01:57        4.27
  48                   JUNCTION     1.57     4.44    18.01     0  01:55        4.43
  49                   JUNCTION     0.34     1.79    17.99     0  01:49        1.79
  50                   JUNCTION     0.41     1.70    18.04     0  02:00        1.70
  51                   JUNCTION     0.56     1.99    18.15     0  01:49        1.99
  52                   JUNCTION     0.51     2.10    18.03     0  01:49        2.10
  53                   JUNCTION     0.63     2.69    17.99     0  01:43        2.69
  54                   JUNCTION     0.46     1.80    18.01     0  01:30        1.80
  55                   JUNCTION     0.28     1.39    18.00     0  01:30        1.39
  56                   JUNCTION     0.42     1.45    18.25     0  01:48        1.45
  57                   JUNCTION     1.85     5.03    17.96     0  01:49        5.02
  58                   JUNCTION     1.78     4.88    17.98     0  01:50        4.88
  59                   JUNCTION     1.69     4.70    17.99     0  01:53        4.70
  60                   JUNCTION     1.25     4.18    17.97     0  01:45        4.18
  61                   JUNCTION     1.28     4.23    17.95     0  01:45        4.23
  62                   JUNCTION     1.30     4.28    17.93     0  01:45        4.28
  63                   JUNCTION     1.48     4.62    17.89     0  01:48        4.61
  64                   JUNCTION     1.51     4.67    17.87     0  01:48        4.66
  65                   JUNCTION     1.57     4.76    17.84     0  01:48        4.75
  66                   JUNCTION     1.54     4.72    17.86     0  01:48        4.70
  67                   JUNCTION     1.60     4.80    17.83     0  01:48        4.79
  68                   JUNCTION     1.62     4.85    17.81     0  01:48        4.83
  69                   JUNCTION     1.65     4.88    17.79     0  01:48        4.87
  70                   JUNCTION     1.67     4.92    17.76     0  01:48        4.90
  71                   JUNCTION     1.70     4.95    17.73     0  01:48        4.94
  72                   JUNCTION     1.20     4.13    17.66     0  01:50        4.13
  73                   JUNCTION     1.02     3.75    17.75     0  01:49        3.74
  74                   JUNCTION     0.94     3.63    17.89     0  01:44        3.54
  75                   JUNCTION     0.90     3.49    17.89     0  01:44        3.43
  76                   JUNCTION     0.83     3.27    17.92     0  01:43        3.23
  77                   JUNCTION     0.80     3.15    17.93     0  01:43        3.14
  78                   JUNCTION     0.75     3.04    17.95     0  01:43        3.04
  79                   JUNCTION     0.71     2.93    17.97     0  01:43        2.93
  80                   JUNCTION     0.67     2.82    17.98     0  01:43        2.82
  81                   JUNCTION     0.22     1.39    18.00     0  01:43        1.39
  82                   JUNCTION     0.30     1.61    18.00     0  01:43        1.61
  83                   JUNCTION     0.43     1.85    18.00     0  01:45        1.85
  84                   JUNCTION     0.53     2.12    17.99     0  01:44        2.10
  85                   JUNCTION     0.58     2.31    17.98     0  01:45        2.25
  86                   JUNCTION     0.69     2.60    18.00     0  01:45        2.54
  87                   JUNCTION     0.72     2.87    17.97     0  01:45        2.75
  88                   JUNCTION     0.81     3.20    17.96     0  01:45        3.20
  89                   JUNCTION     0.29     1.41    17.86     0  01:46        1.39
  90                   JUNCTION     0.33     1.59    17.79     0  01:46        1.55
  91                   JUNCTION     0.35     1.70    17.80     0  01:46        1.61
  92                   JUNCTION     0.43     2.01    17.65     0  01:49        2.01
  93                   JUNCTION     1.40     4.45    17.64     0  01:49        4.44
  94                   JUNCTION     1.72     4.98    17.71     0  01:48        4.98
  95                   JUNCTION     0.32     1.59    17.64     0  01:48        1.58
  96                   JUNCTION     0.36     1.70    17.62     0  01:48        1.69
  97                   JUNCTION     0.15     1.03    17.53     0  01:47        1.02
  98                   JUNCTION     0.29     1.50    17.41     0  01:46        1.50
  99                   JUNCTION     0.19     1.20    17.45     0  01:47        1.15
  100                  JUNCTION     0.15     0.70    16.93     0  01:54        0.70
  101                  JUNCTION     0.05     0.44    16.94     0  01:53        0.43
  102                  JUNCTION     0.64     2.06    18.28     0  01:50        2.06
  103                  JUNCTION     0.59     1.96    18.33     0  01:49        1.96
  104                  JUNCTION     0.50     1.78    18.06     0  01:53        1.78
  105                  JUNCTION     0.42     1.59    18.09     0  01:54        1.59
  106                  JUNCTION     0.53     1.86    18.14     0  01:52        1.86
  107                  JUNCTION     0.42     1.64    18.14     0  01:56        1.64
  108                  JUNCTION     0.39     1.57    18.18     0  01:55        1.57
  109                  JUNCTION     0.59     2.05    18.23     0  01:40        2.05
  110                  JUNCTION     0.15     1.44    18.00     0  01:34        1.44
  111                  JUNCTION     0.57     2.26    18.06     0  01:43        2.26
  112                  JUNCTION     0.67     2.60    18.04     0  01:33        2.60
  113                  JUNCTION     0.60     2.17    17.99     0  01:33        2.13
  114                  JUNCTION     0.66     2.38    18.00     0  01:33        2.30
  115                  JUNCTION     0.63     2.12    18.00     0  01:23        2.11
  116                  JUNCTION     0.02     0.26    16.88     0  01:53        0.26
  117                  JUNCTION     0.23     1.13    16.88     0  01:53        1.13
  118                  JUNCTION     0.17     0.82    17.44     0  01:34        0.82
  119                  JUNCTION     0.35     1.73    17.27     0  01:49        1.72
  120                  JUNCTION     1.82     5.06    17.50     0  01:49        5.06
  121                  JUNCTION     1.82     5.06    17.53     0  01:49        5.06
  122                  JUNCTION     1.82     5.08    17.60     0  01:49        5.07
  123                  JUNCTION     1.42     4.47    17.63     0  01:49        4.47
  124                  JUNCTION     1.93     5.17    17.91     0  01:49        5.17
  125                  JUNCTION     0.69     2.35    18.00     0  01:28        2.34
  126                  JUNCTION     0.79     2.54    17.99     0  01:37        2.53
  127                  JUNCTION     0.84     2.65    18.00     0  01:37        2.64
  128                  JUNCTION     1.04     3.07    18.13     0  01:32        3.07
  129                  JUNCTION     1.11     3.14    18.00     0  01:30        3.14
  130                  JUNCTION     1.11     3.30    18.00     0  01:24        3.20
  131                  JUNCTION     1.10     3.33    17.88     0  01:45        3.28
  132                  JUNCTION     1.09     3.44    17.84     0  01:45        3.38
  133                  JUNCTION     1.20     3.79    17.77     0  01:45        3.74
  134                  JUNCTION     1.22     3.84    17.71     0  01:45        3.81
  135                  JUNCTION     1.23     3.88    17.65     0  01:48        3.88
  136                  JUNCTION     1.24     3.93    17.60     0  01:49        3.93
  137                  JUNCTION     1.25     3.98    17.55     0  01:48        3.98
  138                  JUNCTION     1.26     4.02    17.48     0  01:49        4.02
  139                  JUNCTION     1.24     4.03    17.38     0  01:48        4.03
  140                  JUNCTION     1.85     5.00    17.25     0  01:49        4.99
  141                  JUNCTION     1.82     4.92    17.11     0  01:49        4.92
  142                  JUNCTION     0.46     1.62    17.51     0  01:34        1.62
  143                  JUNCTION     0.35     1.68    16.80     0  01:48        1.68
  144                  JUNCTION     0.00     0.00    16.13     0  00:00        0.00
  145                  JUNCTION     0.62     2.61    18.00     0  01:27        2.19
  146                  JUNCTION     0.76     2.55    17.52     0  01:40        2.55
  147                  JUNCTION     0.33     1.90    18.00     0  01:32        1.43
  148                  JUNCTION     0.59     2.47    17.41     0  01:44        2.47
  149                  JUNCTION     0.24     1.90    18.00     0  01:30        1.50
  150                  JUNCTION     0.41     1.89    17.69     0  01:42        1.89
  151                  JUNCTION     0.68     2.48    18.01     0  01:28        2.48
  152                  JUNCTION     0.78     2.43    18.09     0  01:37        2.43
  153                  JUNCTION     0.54     2.00    18.07     0  01:47        2.00
  154                  JUNCTION     0.94     2.31    18.03     0  01:55        2.31
  155                  JUNCTION     1.08     2.32    18.11     0  02:24        2.32
  156                  JUNCTION     1.02     2.07    18.34     0  02:11        2.07
  157                  JUNCTION     0.58     1.49    18.11     0  02:28        1.49
  158                  JUNCTION     0.49     1.52    18.03     0  02:08        1.52
  159                  JUNCTION     0.57     1.91    18.28     0  01:53        1.91
  160                  JUNCTION     0.68     2.11    18.28     0  01:52        2.11
  161                  JUNCTION     2.00     5.33    17.83     0  01:50        5.33
  162                  JUNCTION     2.04     5.39    17.79     0  01:50        5.39
  163                  JUNCTION     2.06     5.43    17.75     0  01:50        5.43
  164                  JUNCTION     2.08     5.48    17.72     0  01:50        5.48
  165                  JUNCTION     2.10     5.51    17.67     0  01:52        5.51
  166                  JUNCTION     2.12     5.54    17.62     0  01:53        5.54
  167                  JUNCTION     2.13     5.56    17.56     0  01:53        5.56
  168                  JUNCTION     2.14     5.58    17.50     0  01:54        5.58
  169                  JUNCTION     2.15     5.58    17.42     0  01:53        5.58
  170                  JUNCTION     2.16     5.58    17.34     0  01:54        5.58
  171                  JUNCTION     2.17     5.58    17.26     0  01:54        5.58
  172                  JUNCTION     2.17     5.56    17.16     0  01:54        5.56
  173                  JUNCTION     2.18     5.54    17.06     0  01:53        5.54
  174                  JUNCTION     2.18     5.52    16.96     0  01:53        5.52
  175                  JUNCTION     2.18     5.49    16.85     0  01:52        5.49
  176                  JUNCTION     2.18     5.47    16.74     0  01:50        5.47
  177                  JUNCTION     2.42     5.73    16.63     0  01:50        5.73
  178                  JUNCTION     0.73     2.34    17.58     0  01:31        2.34
  179                  JUNCTION     0.51     2.19    16.75     0  01:46        2.19
  180                  JUNCTION     0.00     0.00    15.47     0  00:00        0.00
  181                  JUNCTION     0.54     2.10    17.06     0  01:35        2.10
  182                  JUNCTION     0.67     2.40    16.81     0  01:44        2.40
  183                  JUNCTION     0.06     0.22    17.07     0  01:37        0.22
  184                  JUNCTION     0.45     1.79    16.31     0  01:44        1.79
  185                  JUNCTION     0.10     0.82    17.67     0  01:32        0.56
  186                  JUNCTION     0.45     1.76    16.91     0  01:42        1.76
  187                  JUNCTION     0.90     2.49    16.69     0  01:35        2.48
  188                  JUNCTION     1.10     3.43    17.83     0  01:27        3.13
  189                  JUNCTION     1.17     3.31    17.95     0  01:34        3.29
  190                  JUNCTION     1.11     2.83    18.02     0  01:39        2.83
  191                  JUNCTION     1.11     2.54    18.03     0  01:53        2.54
  192                  JUNCTION     0.42     1.65    18.04     0  02:11        1.65
  193                  JUNCTION     0.69     2.23    18.04     0  01:53        2.23
  194                  JUNCTION     1.22     3.21    18.09     0  01:57        3.21
  195                  JUNCTION     0.42     1.39    18.24     0  01:49        1.39
  196                  JUNCTION     0.62     1.83    18.21     0  02:01        1.83
  197                  JUNCTION     0.74     2.21    18.13     0  02:01        2.21
  198                  JUNCTION     1.43     3.65    18.07     0  01:55        3.65
  199                  JUNCTION     1.54     3.95    18.02     0  01:45        3.95
  200                  JUNCTION     0.68     2.14    18.18     0  01:46        2.14
  201                  JUNCTION     0.54     1.74    18.22     0  01:47        1.74
  202                  JUNCTION     0.40     1.41    18.21     0  01:39        1.41
  203                  JUNCTION     0.20     1.26    17.80     0  01:33        1.21
  204                  JUNCTION     0.33     1.98    18.00     0  01:25        1.67
  205                  JUNCTION     1.34     4.18    18.00     0  01:26        4.18
  206                  JUNCTION     1.07     3.88    17.41     0  01:32        3.86
  207                  JUNCTION     0.14     1.66    18.00     0  01:28        1.66
  208                  JUNCTION     0.04     1.15    18.00     0  01:31        1.15
  209                  JUNCTION     0.62     1.52    15.54     0  01:36        1.52
  210                  JUNCTION     0.37     1.71    18.09     0  01:41        1.71
  211                  JUNCTION     0.21     0.80    16.54     0  01:40        0.80
  212                  JUNCTION     0.62     2.31    15.43     0  01:32        2.31
  213                  JUNCTION     0.46     1.38    14.23     0  01:33        1.38
  214                  JUNCTION     0.00     0.00    16.18     0  00:00        0.00
  215                  JUNCTION     0.49     1.06    14.55     0  01:41        1.06
  216                  JUNCTION     0.00     0.00    16.85     0  00:00        0.00
  217                  JUNCTION     0.50     0.98    14.01     0  01:41        0.98
  218                  JUNCTION     0.50     1.02    13.62     0  01:32        1.02
  219                  JUNCTION     0.49     0.97    13.45     0  01:32        0.97
  220                  JUNCTION     0.56     1.12    12.88     0  01:32        1.12
  221                  JUNCTION     0.63     1.32    12.52     0  01:40        1.32
  222                  JUNCTION     0.39     1.21    14.93     0  01:20        1.20
  223                  JUNCTION     0.44     1.58    15.62     0  01:33        1.57
  224                  JUNCTION     0.44     1.66    16.00     0  01:35        1.66
  225                  JUNCTION     0.00     0.00    14.83     0  00:00        0.00
  226                  JUNCTION     0.00     0.00    14.30     0  00:00        0.00
  227                  JUNCTION     0.00     0.00    13.76     0  00:00        0.00
  228                  JUNCTION     0.62     1.32    12.46     0  01:40        1.32
  229                  JUNCTION     0.44     1.81    15.82     0  01:47        1.81
  230                  JUNCTION     0.39     2.41    15.95     0  01:23        1.50
  231                  JUNCTION     0.36     1.78    14.83     0  01:23        1.24
  232                  JUNCTION     0.66     1.41    12.40     0  01:45        1.41
  233                  JUNCTION     0.90     2.99    17.59     0  01:30        2.99
  234                  JUNCTION     0.61     2.49    16.47     0  01:30        2.49
  235                  JUNCTION     0.38     1.35    14.82     0  01:29        1.34
  236                  JUNCTION     0.65     1.42    12.35     0  01:46        1.42
  237                  JUNCTION     2.26     5.11    15.63     0  01:53        5.11
  238                  JUNCTION     1.88     4.14    14.51     0  01:53        4.14
  239                  JUNCTION     1.51     3.22    13.43     0  01:50        3.22
  240                  JUNCTION     1.41     2.72    12.29     0  01:45        2.72
  241                  JUNCTION     1.64     4.27    15.82     0  01:55        4.27
  242                  JUNCTION     0.08     0.26    16.44     0  01:30        0.26
  243                  JUNCTION     0.12     0.39    15.81     0  01:30        0.39
  244                  JUNCTION     0.00     0.00    16.65     0  00:00        0.00
  245                  JUNCTION     0.74     1.96    13.68     0  01:42        1.96
  246                  JUNCTION     1.62     4.28    15.98     0  02:00        4.28
  247                  JUNCTION     0.01     0.17    16.54     0  01:44        0.17
  248                  JUNCTION     0.79     3.06    16.55     0  01:34        3.04
  249                  JUNCTION     0.69     2.61    15.69     0  01:43        2.61
  250                  JUNCTION     1.03     3.07    14.90     0  01:43        3.07
  251                  JUNCTION     1.61     4.33    16.18     0  02:01        4.32
  252                  JUNCTION     0.13     0.89    17.26     0  01:29        0.85
  253                  JUNCTION     0.84     3.27    16.91     0  01:34        3.21
  254                  JUNCTION     1.60     4.38    16.39     0  02:01        4.38
  255                  JUNCTION     0.36     1.74    18.11     0  01:37        1.74
  256                  JUNCTION     0.86     3.37    17.28     0  01:34        3.31
  257                  JUNCTION     0.29     1.79    18.06     0  01:32        1.79
  258                  JUNCTION     1.16     3.88    15.98     0  01:45        3.88
  259                  JUNCTION     1.59     4.43    16.59     0  02:01        4.43
  260                  JUNCTION     0.17     1.68    18.01     0  01:31        1.68
  261                  JUNCTION     0.84     3.64    17.75     0  01:29        3.30
  262                  JUNCTION     0.02     0.20    17.05     0  01:44        0.20
  263                  JUNCTION     1.22     4.15    16.39     0  01:44        4.15
  264                  JUNCTION     1.58     4.48    16.79     0  02:01        4.48
  265                  JUNCTION     0.70     3.24    18.00     0  01:28        2.91
  266                  JUNCTION     0.85     3.29    17.55     0  01:35        3.29
  267                  JUNCTION     0.92     3.69    17.26     0  01:40        3.69
  268                  JUNCTION     1.25     4.34    16.71     0  01:43        4.33
  269                  JUNCTION     1.55     4.49    16.96     0  02:00        4.49
  270                  JUNCTION     1.53     4.53    17.14     0  01:58        4.53
  271                  JUNCTION     0.55     2.65    18.00     0  01:28        2.35
  272                  JUNCTION     0.13     1.73    18.00     0  01:36        1.73
  273                  JUNCTION     0.97     3.85    17.64     0  01:40        3.82
  274                  JUNCTION     1.08     4.34    17.59     0  01:38        4.14
  275                  JUNCTION     1.50     4.60    17.35     0  01:56        4.59
  276                  JUNCTION     1.44     4.65    17.56     0  01:56        4.64
  277                  JUNCTION     1.29     4.47    17.64     0  01:56        4.46
  278                  JUNCTION     1.21     4.33    17.70     0  01:56        4.31
  279                  JUNCTION     0.44     1.89    18.11     0  01:45        1.89
  280                  JUNCTION     0.45     1.99    18.01     0  01:49        1.99
  281                  JUNCTION     0.87     3.56    18.06     0  01:47        3.56
  282                  JUNCTION     0.49     2.36    18.05     0  01:46        2.36
  283                  JUNCTION     0.51     2.51    18.00     0  01:45        2.51
  284                  JUNCTION     0.12     1.47    18.00     0  01:34        1.30
  285                  JUNCTION     0.96     3.85    17.82     0  01:40        3.83
  286                  JUNCTION     0.97     3.85    17.91     0  01:40        3.84
  287                  JUNCTION     0.95     3.80    17.98     0  01:40        3.79
  288                  JUNCTION     0.92     3.71    18.01     0  01:45        3.71
  289                  JUNCTION     0.25     1.48    18.04     0  01:48        1.48
  290                  JUNCTION     0.98     3.82    18.02     0  01:48        3.82
  291                  JUNCTION     1.09     4.11    18.02     0  01:44        4.11
  292                  JUNCTION     1.12     4.32    18.00     0  01:43        4.30
  293                  JUNCTION     1.12     4.46    18.00     0  01:37        4.31
  294                  JUNCTION     0.79     3.26    18.03     0  01:53        3.26
  295                  JUNCTION     0.13     1.20    18.05     0  01:50        1.20
  296                  JUNCTION     0.81     3.41    18.08     0  01:48        3.41
  297                  JUNCTION     0.75     3.25    18.10     0  01:48        3.25
  298                  JUNCTION     0.18     1.16    18.01     0  01:55        1.16
  299                  JUNCTION     1.13     4.16    17.74     0  01:56        4.15
  300                  JUNCTION     1.05     3.96    17.74     0  01:56        3.96
  301                  JUNCTION     0.95     3.77    17.75     0  01:56        3.72
  302                  JUNCTION     0.79     3.48    17.83     0  01:45        3.48
  303                  JUNCTION     0.27     1.75    18.10     0  01:58        1.75
  304                  JUNCTION     0.50     2.47    18.13     0  01:47        2.47
  305                  JUNCTION     0.42     2.00    18.09     0  02:02        2.00
  306                  JUNCTION     0.64     2.77    18.04     0  01:59        2.77
  307                  JUNCTION     0.42     1.53    18.20     0  01:49        1.53
  308                  JUNCTION     0.63     2.24    18.17     0  02:10        2.24
  309                  JUNCTION     0.32     1.18    18.03     0  02:11        1.18
  310                  JUNCTION     0.47     1.62    18.29     0  01:52        1.62
  311                  JUNCTION     0.43     1.50    18.30     0  01:52        1.50
  312                  JUNCTION     0.31     1.29    18.14     0  01:59        1.29
  313                  JUNCTION     0.35     1.33    18.18     0  01:48        1.33
  314                  JUNCTION     0.34     1.34    18.14     0  01:46        1.34
  315                  JUNCTION     0.32     1.30    18.10     0  01:47        1.30
  316                  JUNCTION     0.48     1.68    18.35     0  01:48        1.68
  317                  JUNCTION     0.47     1.67    18.47     0  01:46        1.67
  318                  JUNCTION     0.01     0.08    16.93     0  01:53        0.08
  319                  JUNCTION     0.01     0.08    16.93     0  01:54        0.08
  320                  JUNCTION     0.15     1.15    18.00     0  01:22        0.92
  321                  JUNCTION     0.12     1.16    17.83     0  01:46        1.09
  322                  JUNCTION     0.14     1.00    17.80     0  01:46        0.82
  323                  JUNCTION     0.06     1.15    18.00     0  01:42        1.05
  324                  JUNCTION     0.14     1.20    18.00     0  01:41        0.89
  325                  JUNCTION     0.14     1.01    17.81     0  01:40        0.93
  326                  JUNCTION     0.14     0.98    17.78     0  01:40        0.94
  327                  JUNCTION     0.18     1.11    17.78     0  01:48        1.09
  328                  JUNCTION     0.17     1.13    17.80     0  01:48        1.11
  329                  JUNCTION     0.09     1.15    18.00     0  01:39        0.95
  330                  JUNCTION     0.21     1.21    17.88     0  01:44        1.18
  331                  JUNCTION     0.09     1.15    18.00     0  01:38        0.99
  332                  JUNCTION     0.16     1.17    17.97     0  01:38        1.07
  333                  JUNCTION     0.10     1.15    18.00     0  01:38        1.02
  334                  JUNCTION     0.10     1.15    18.00     0  01:38        1.04
  335                  JUNCTION     0.16     1.14    17.94     0  01:45        1.14
  336                  JUNCTION     0.20     1.17    18.02     0  01:50        1.17
  337                  JUNCTION     0.41     1.60    18.27     0  01:48        1.60
  338                  JUNCTION     0.25     1.28    18.13     0  02:08        1.28
  339                  JUNCTION     0.33     1.30    18.15     0  02:09        1.30
  340                  JUNCTION     0.38     1.34    18.19     0  02:02        1.34
  341                  JUNCTION     0.31     1.33    18.18     0  02:13        1.33
  342                  JUNCTION     0.22     1.20    18.05     0  02:04        1.20
  343                  JUNCTION     0.16     1.17    18.02     0  01:48        1.17
  344                  JUNCTION     0.06     1.15    18.00     0  02:05        1.15
  345                  JUNCTION     0.15     1.20    18.05     0  01:59        1.20
  346                  JUNCTION     0.06     1.16    18.01     0  01:42        1.16
  348                  JUNCTION     0.00     0.00    16.85     0  00:00        0.00
  349                  JUNCTION     0.09     1.15    18.00     0  01:29        0.81
  350                  JUNCTION     0.27     1.19    18.04     0  02:10        1.19
  z_0512_001_001       JUNCTION     0.43     1.33    18.18     0  02:17        1.33
  z_0512_001_002       JUNCTION     0.36     1.44    18.29     0  01:54        1.44
  z_0512_001_003       JUNCTION     0.26     1.21    18.06     0  01:54        1.21
  z_0512_001_004       JUNCTION     0.31     1.29    18.14     0  01:54        1.29
  z_0512_001_005       JUNCTION     0.32     1.33    18.18     0  01:57        1.33
  z_0512_001_006       JUNCTION     0.09     1.15    18.00     0  01:36        1.15
  z_0512_001_007       JUNCTION     0.37     1.43    18.28     0  01:55        1.43
  z_0512_001_008       JUNCTION     0.20     1.21    18.06     0  01:40        1.21
  z_0512_001_010       JUNCTION     0.19     1.15    18.00     0  01:29        1.15
  z_0512_001_013       JUNCTION     0.00     0.03    16.88     0  01:52        0.03
  z_0512_001_014       JUNCTION     0.00     0.00    16.85     0  00:00        0.00
  z_0512_001_015       JUNCTION     0.10     1.15    18.00     0  01:31        0.59
  z_0512_001_018       JUNCTION     0.43     1.33    18.18     0  02:17        1.33
  z_0512_001_020       JUNCTION     0.26     1.26    18.11     0  02:04        1.26
  z_0512_001_024       JUNCTION     0.37     1.36    18.21     0  02:02        1.36
  z_0512_001_026       JUNCTION     0.12     1.11    17.96     0  01:27        0.66
  z_0512_001_028       JUNCTION     0.00     0.00    16.85     0  00:00        0.00
  z_0512_001_034       JUNCTION     0.17     1.18    18.03     0  02:00        1.18
  z_0512_001_035       JUNCTION     0.26     1.22    18.07     0  01:48        1.22
  z_0512_001_036       JUNCTION     0.27     1.19    18.04     0  02:17        1.19
  z_0512_001_037       JUNCTION     0.67     1.49    18.34     0  02:07        1.49
  z_0512_001_038       JUNCTION     0.46     1.26    18.11     0  02:30        1.26
  z_0512_001_039       JUNCTION     0.26     1.22    18.07     0  01:55        1.22
  z_0512_001_040       JUNCTION     0.32     1.18    18.03     0  02:04        1.18
  z_0512_001_047       JUNCTION     0.05     1.15    18.00     0  01:53        1.15
  z_0512_001_049       JUNCTION     0.05     1.15    18.00     0  01:54        1.15
  z_0512_001_051       JUNCTION     0.04     1.15    18.00     0  01:56        1.15
  z_0512_001_061       JUNCTION     0.14     1.15    18.00     0  01:36        1.14
  z_0512_001_071       JUNCTION     0.12     1.15    18.00     0  01:26        0.73
  z_0512_001_073       JUNCTION     0.00     0.00    16.85     0  00:00        0.00
  z_0512_001_079       JUNCTION     0.00     0.07    16.92     0  01:43        0.07
  z_0512_001_080       JUNCTION     0.42     1.37    18.22     0  01:57        1.37
  z_0512_001_082       JUNCTION     0.34     1.18    18.03     0  01:56        1.18
  z_0512_001_083       JUNCTION     0.35     1.37    18.22     0  01:49        1.37
  z_0512_001_086       JUNCTION     0.35     1.37    18.22     0  01:52        1.37
  z_0512_001_087       JUNCTION     0.09     1.15    18.00     0  01:29        1.15
  z_0512_001_088       JUNCTION     0.20     1.25    18.10     0  01:38        1.25
  z_0512_001_089       JUNCTION     0.00     0.00    16.85     0  00:00        0.00
  z_0512_001_090       JUNCTION     0.00     0.00    16.85     0  00:00        0.00
  z_0512_001_092       JUNCTION     0.20     1.25    18.10     0  01:42        1.25
  z_0512_001_095       JUNCTION     0.00     0.00    16.85     0  00:00        0.00
  z_0512_001_096       JUNCTION     0.00     0.00    16.85     0  00:00        0.00
  z_0512_001_097       JUNCTION     0.08     1.15    18.00     0  01:26        1.15
  z_0512_001_098       JUNCTION     0.22     1.23    18.08     0  02:01        1.23
  z_0512_001_100       JUNCTION     0.00     0.00    16.85     0  00:00        0.00
  z_0512_001_101       JUNCTION     0.00     0.00    16.85     0  00:00        0.00
  z_0512_001_103       JUNCTION     0.00     0.00    16.85     0  00:00        0.00
  z_0512_001_104       JUNCTION     0.02     0.43    17.28     0  01:37        0.38
  z_0512_001_105       JUNCTION     0.24     1.25    18.10     0  02:05        1.25
  z_0512_001_106       JUNCTION     0.20     1.26    18.11     0  01:44        1.26
  z_0512_001_107       JUNCTION     0.13     1.20    18.05     0  01:38        1.20
  z_0512_001_108       JUNCTION     0.04     1.15    18.00     0  01:33        1.15
  z_0512_001_113       JUNCTION     0.05     1.15    18.00     0  01:39        1.15
  z_0512_001_114       JUNCTION     0.07     1.15    18.00     0  01:36        1.15
  z_0512_001_115       JUNCTION     0.02     1.15    18.00     0  01:43        0.56
  z_0512_001_116       JUNCTION     0.20     1.26    18.11     0  01:55        1.26
  z_0512_001_121       JUNCTION     0.12     1.15    18.00     0  01:32        1.15
  z_0512_001_123       JUNCTION     0.08     1.16    18.01     0  01:40        1.16
  z_0512_001_131       JUNCTION     0.17     1.25    18.10     0  02:01        1.25
  z_0512_001_132       JUNCTION     0.18     1.24    18.09     0  02:02        1.24
  z_0512_001_135       JUNCTION     0.15     1.15    18.00     0  01:55        1.15
  z_0512_001_136       JUNCTION     0.15     1.15    18.00     0  01:55        1.15
  z_0512_001_137       JUNCTION     0.13     1.15    18.00     0  01:38        1.14
  z_0512_001_138       JUNCTION     0.17     1.18    18.03     0  01:56        1.18
  z_0512_001_139       JUNCTION     0.28     1.30    18.15     0  01:57        1.30
  z_0512_001_140       JUNCTION     0.21     1.20    18.05     0  01:58        1.20
  z_0512_001_142       JUNCTION     0.16     1.16    18.01     0  01:42        1.15
  z_0512_001_143       JUNCTION     0.37     1.40    18.25     0  02:00        1.40
  z_0512_001_144       JUNCTION     0.18     1.15    18.00     0  01:39        1.14
  z_0512_001_145       JUNCTION     0.21     1.20    18.05     0  01:58        1.20
  z_0512_001_146       JUNCTION     0.13     1.15    18.00     0  01:39        1.15
  z_0512_001_147       JUNCTION     0.16     1.15    18.00     0  01:44        1.15
  z_0512_001_148       JUNCTION     0.17     1.18    18.03     0  01:56        1.18
  z_0512_001_149       JUNCTION     0.28     1.30    18.15     0  02:00        1.30
  z_0512_001_150       JUNCTION     0.21     1.16    18.01     0  01:27        1.16
  z_0512_001_161       JUNCTION     0.22     1.16    18.01     0  01:28        1.16
  z_0512_001_174       JUNCTION     0.12     1.15    18.00     0  01:25        1.01
  z_0512_001_179       JUNCTION     0.06     0.80    17.65     0  01:41        0.78
  z_0512_001_180       JUNCTION     0.03     0.74    17.59     0  01:46        0.72
  z_0512_001_181       JUNCTION     0.00     0.09    16.94     0  01:50        0.09
  347                  OUTFALL      1.04     1.74    11.13     0  01:46        1.74
  
  
  *******************
  Node Inflow Summary
  *******************
  
  -------------------------------------------------------------------------------------------------
                                  Maximum  Maximum                  Lateral       Total        Flow
                                  Lateral    Total  Time of Max      Inflow      Inflow     Balance
                                   Inflow   Inflow   Occurrence      Volume      Volume       Error
  Node                 Type           CMS      CMS  days hr:min    10^6 ltr    10^6 ltr     Percent
  -------------------------------------------------------------------------------------------------
  1                    JUNCTION     0.139    0.139     0  01:30        0.34       0.341       1.059
  2                    JUNCTION     0.133    0.581     0  01:29       0.327        1.38       1.292
  3                    JUNCTION     0.114    0.276     0  01:32       0.281       0.659       0.317
  4                    JUNCTION     0.000    0.378     0  01:32           0       0.964      -0.257
  5                    JUNCTION     0.000    0.374     0  01:30           0           1       1.011
  6                    JUNCTION     0.138    0.610     0  01:30       0.338        1.56      -0.403
  7                    JUNCTION     0.090    0.866     0  01:30       0.221        2.14       1.865
  8                    JUNCTION     0.000    0.691     0  01:27           0        2.06       0.077
  9                    JUNCTION     0.296    0.717     0  01:27       0.727        2.03      -0.497
  10                   JUNCTION     0.111    0.111     0  01:30       0.273       0.274       2.348
  11                   JUNCTION     0.139    0.139     0  01:30        0.34       0.422       0.654
  12                   JUNCTION     0.260    0.260     0  01:30        0.64        0.64       0.702
  13                   JUNCTION     0.161    0.184     0  01:30       0.395       0.423       0.116
  14                   JUNCTION     0.000    0.183     0  01:30           0       0.421       0.880
  15                   JUNCTION     0.151    0.268     0  01:26        0.37        0.76      -0.168
  16                   JUNCTION     0.000    0.257     0  01:30           0       0.784       0.264
  17                   JUNCTION     0.000    0.227     0  01:25           0       0.757       0.219
  18                   JUNCTION     0.140    0.387     0  01:29       0.344        1.19       0.035
  19                   JUNCTION     0.000    0.309     0  01:24           0        1.12       0.425
  20                   JUNCTION     0.076    0.374     0  01:26       0.187        1.31      -0.338
  21                   JUNCTION     0.132    0.196     0  01:31       0.324       0.386       2.105
  22                   JUNCTION     0.000    0.100     0  01:34           0      0.0212      -3.519
  23                   JUNCTION     0.000    0.050     0  01:34           0     0.00637      -0.097
  24                   JUNCTION     0.000    0.137     0  01:33           0      0.0451       5.042
  25                   JUNCTION     0.145    0.145     0  01:30       0.357       0.358       2.488
  26                   JUNCTION     0.189    0.189     0  01:30       0.464       0.514       0.338
  27                   JUNCTION     0.166    0.334     0  01:23       0.408        1.04       1.193
  28                   JUNCTION     0.000    0.115     0  02:49           0        0.35       0.757
  29                   JUNCTION     0.179    0.257     0  01:30       0.439       0.828       0.843
  30                   JUNCTION     0.000    0.565     0  01:25           0        1.64      -0.835
  31                   JUNCTION     0.268    0.396     0  01:29       0.658        1.18       0.842
  32                   JUNCTION     0.000    0.412     0  01:30           0        1.39      -0.363
  33                   JUNCTION     0.143    0.553     0  01:30       0.352        1.78       0.804
  34                   JUNCTION     0.000    0.551     0  01:29           0        1.74      -0.398
  35                   JUNCTION     0.000    0.625     0  01:29           0        1.76       0.080
  36                   JUNCTION     0.000    0.185     0  01:33           0        0.31      -0.248
  37                   JUNCTION     0.076    0.440     0  01:26       0.187         1.5       1.264
  38                   JUNCTION     0.144    1.198     0  01:26       0.353        4.93      -0.462
  39                   JUNCTION     0.257    0.751     0  01:26       0.632        3.12       0.111
  40                   JUNCTION     0.154    0.795     0  01:27       0.378        2.52      -0.411
  41                   JUNCTION     0.000    0.823     0  01:28           0        1.86       1.037
  42                   JUNCTION     0.000    0.130     0  01:39           0       0.114      -2.948
  43                   JUNCTION     0.358    0.358     0  01:30       0.879       0.941       1.382
  44                   JUNCTION     0.000    0.501     0  01:28           0        1.55       1.002
  45                   JUNCTION     0.000    1.372     0  01:29           0        4.38      -0.939
  46                   JUNCTION     0.114    0.737     0  01:26       0.281        2.31       0.819
  47                   JUNCTION     0.000    1.613     0  01:30           0        5.98       0.012
  48                   JUNCTION     0.000    1.633     0  01:26           0        6.81       0.350
  49                   JUNCTION     0.000    0.154     0  01:35           0       0.162       0.345
  50                   JUNCTION     0.221    0.221     0  01:30       0.542       0.578       2.426
  51                   JUNCTION     0.395    0.395     0  01:30       0.971        1.06      -0.007
  52                   JUNCTION     0.000    0.350     0  01:27           0       0.996       0.710
  53                   JUNCTION     0.355    0.642     0  01:30       0.871        1.85      -0.137
  54                   JUNCTION     0.119    0.271     0  01:24       0.292       0.317       0.029
  55                   JUNCTION     0.000    0.151     0  01:25           0       0.023      -3.214
  56                   JUNCTION     0.510    0.510     0  01:30        1.25        1.25       0.107
  57                   JUNCTION     0.000    2.025     0  01:33           0        9.06       0.081
  58                   JUNCTION     0.201    1.747     0  01:25       0.494        7.76      -0.079
  59                   JUNCTION     0.000    1.566     0  01:26           0        6.85      -0.317
  60                   JUNCTION     0.244    1.906     0  01:25       0.598         7.3      -0.109
  61                   JUNCTION     0.114    2.043     0  01:25       0.281        7.92      -0.024
  62                   JUNCTION     0.159    2.163     0  01:25       0.391        8.55       0.286
  63                   JUNCTION     0.141    2.167     0  01:24       0.346        8.93      -0.301
  64                   JUNCTION     0.279    2.232     0  01:24       0.684        9.69      -0.006
  65                   JUNCTION     0.138    2.175     0  01:36       0.338        10.6       0.044
  66                   JUNCTION     0.139    2.224     0  01:24        0.34        10.2      -0.017
  67                   JUNCTION     0.114    2.345     0  01:36       0.281        11.5      -0.056
  68                   JUNCTION     0.114    2.244     0  01:36       0.281        11.8       0.007
  69                   JUNCTION     0.000    2.334     0  01:36           0        12.1      -0.006
  70                   JUNCTION     0.000    2.317     0  01:37           0        12.5      -0.019
  71                   JUNCTION     0.114    2.341     0  01:40       0.281          13      -0.003
  72                   JUNCTION     0.136    0.734     0  01:25       0.333        3.48      -0.470
  73                   JUNCTION     0.183    0.744     0  01:26       0.451        3.15       0.863
  74                   JUNCTION     0.000    0.631     0  01:27           0         2.7      -0.024
  75                   JUNCTION     0.000    0.692     0  01:28           0         2.7       0.005
  76                   JUNCTION     0.000    0.748     0  01:28           0        2.72      -0.219
  77                   JUNCTION     0.136    0.828     0  01:29       0.335        2.67      -0.234
  78                   JUNCTION     0.091    0.731     0  01:29       0.224        2.25      -0.370
  79                   JUNCTION     0.000    0.653     0  01:30           0        1.92      -0.058
  80                   JUNCTION     0.000    0.646     0  01:30           0        1.88      -0.009
  81                   JUNCTION     0.000    0.088     0  01:42           0      0.0587       2.109
  82                   JUNCTION     0.000    0.104     0  01:27           0       0.142       1.533
  83                   JUNCTION     0.132    0.216     0  01:30       0.325       0.495       0.525
  84                   JUNCTION     0.126    0.217     0  01:30       0.309       0.648       0.096
  85                   JUNCTION     0.000    0.167     0  01:27           0       0.563      -0.253
  86                   JUNCTION     0.323    0.414     0  01:28       0.793        1.25       0.226
  87                   JUNCTION     0.200    0.571     0  01:29       0.492        1.72       0.465
  88                   JUNCTION     0.000    0.534     0  01:29           0        1.71       0.633
  89                   JUNCTION     0.308    0.308     0  01:30       0.755       0.762       0.595
  90                   JUNCTION     0.119    0.372     0  01:30       0.306        1.03      -0.078
  91                   JUNCTION     0.123    0.492     0  01:30       0.303        1.33       0.827
  92                   JUNCTION     0.239    0.724     0  01:30       0.587        1.88      -0.107
  93                   JUNCTION     0.312    1.384     0  01:26       0.767        6.12      -0.332
  94                   JUNCTION     0.125    2.459     0  01:37       0.307        13.6       0.027
  95                   JUNCTION     0.457    0.606     0  01:30        1.12        1.51      -0.345
  96                   JUNCTION     0.226    0.822     0  01:30       0.555        2.07       2.400
  97                   JUNCTION     0.000    0.193     0  01:30           0       0.479       0.314
  98                   JUNCTION     0.065    0.743     0  01:30       0.159        1.88      -0.448
  99                   JUNCTION     0.138    0.310     0  01:30       0.338       0.759       0.237
  100                  JUNCTION     0.133    0.133     0  01:30       0.327       0.341       0.257
  101                  JUNCTION     0.000    0.028     0  01:38           0      0.0127       0.725
  102                  JUNCTION     0.088    0.426     0  01:21       0.215         1.7      -0.191
  103                  JUNCTION     0.140    0.254     0  01:30       0.344       0.848      -0.017
  104                  JUNCTION     0.000    0.194     0  01:25           0       0.624      -0.449
  105                  JUNCTION     0.000    0.135     0  01:26           0       0.329       0.127
[...]
  402                         0.01      0.01      4.20      0.01         0.01
  197                         2.01      2.01      2.05      0.02         0.03
  465                         0.77      0.77      1.10      0.01         0.01
  468                         0.45      0.45      4.51      0.01         0.01
  466                         0.57      0.57      4.53      0.01         0.01
  219                         1.19      1.19      1.25      0.01         0.01
  218                         0.60      0.60      0.76      0.02         0.01
  274                         0.69      0.69      0.72      0.01         0.01
  230                         1.05      1.05      1.48      0.01         0.01
  430                         1.03      1.03      4.48      0.01         0.01
  104                         1.31      1.31      1.61      0.06         0.01
  429                         1.31      1.31      1.37      0.01         0.01
  352                         1.00      1.00      1.13      0.01         0.01
  241                         1.00      1.00      1.23      0.01         0.01
  8                           1.21      1.21      1.36      0.01         0.01
  357                         0.85      0.85      1.00      0.01         0.01
  9                           1.16      1.20      1.20      0.59         0.55
  14                          0.76      0.76      1.10      0.01         0.01
  382                         0.79      0.79      1.02      0.01         0.01
  381                         0.01      0.01      4.54      0.01         0.01
  12                          1.27      1.27      1.46      0.14         0.12
  433                         0.95      0.98      4.58      0.05         0.02
  102                         1.82      2.28      1.83      1.47         0.95
  60                          1.56      1.56      1.66      0.10         0.11
  525                         0.12      0.12      4.32      0.01         0.01
  504                         0.16      0.16      4.32      0.01         0.01
  322                         1.47      1.47      1.53      0.01         0.01
  340                         0.97      0.97      1.02      0.22         0.22
  315                         1.65      1.65      1.67      0.01         0.01
  255                         0.51      0.51      0.69      0.01         0.01
  403                         0.01      0.01      4.36      0.01         0.01
  337                         1.44      1.44      1.60      0.01         0.01
  38                          1.76      1.88      1.76      1.02         0.77
  76                          2.10      2.10      2.11      0.18         0.23
  400                         0.16      0.16      0.56      0.01         0.01
  198                         1.95      1.95      2.01      0.01         0.01
  476                         0.60      0.60      0.83      0.02         0.01
  220                         1.14      1.14      1.19      0.01         0.01
  481                         0.66      0.66      1.04      0.01         0.01
  385                         1.04      1.04      1.30      0.01         0.01
  279                         1.08      1.08      1.17      0.01         0.01
  240                         0.99      0.99      1.21      0.01         0.01
  353                         1.03      1.03      1.06      0.01         0.01
  239                         1.02      1.02      1.11      0.01         0.01
  10                          1.11      1.11      1.20      0.01         0.01
  355                         0.59      0.59      0.76      0.01         0.01
  11                          1.08      1.08      1.27      0.01         0.01
  69                          1.39      1.39      1.56      0.19         0.20
  61                          1.42      1.42      1.56      0.05         0.01
  103                         2.24      2.27      2.28      1.24         1.13
  522                         0.14      0.14      4.35      0.01         0.01
  323                         1.43      1.43      1.47      0.01         0.01
  338                         0.93      0.97      0.97      0.38         0.30
  314                         1.63      1.63      1.65      0.01         0.01
  256                         0.52      0.52      0.73      0.01         0.01
  520                         0.19      0.19      4.50      0.01         0.01
  401                         0.01      0.01      4.50      0.01         0.01
  37                          1.88      1.91      1.88      0.87         0.76
  336                         1.41      1.46      1.44      0.32         0.20
  75                          2.09      2.09      2.10      0.07         0.08
  398                         0.24      0.24      0.58      0.01         0.01
  199                         1.89      1.89      1.95      0.01         0.01
  229                         0.98      0.98      1.14      0.01         0.01
  221                         0.65      0.65      0.86      0.01         0.01
  238                         1.02      1.02      1.11      0.01         0.01
  354                         1.05      1.05      1.08      0.01         0.01
  388                         1.07      1.07      1.37      0.01         0.01
  384                         1.12      1.12      1.18      0.01         0.01
  356                         1.14      1.14      1.23      0.01         0.01
  237                         1.15      1.15      1.30      0.01         0.01
  67                          1.28      1.28      1.39      0.01         0.01
  431                         1.41      1.41      1.85      0.01         0.01
  63                          2.14      2.14      2.27      0.73         0.73
  62                          2.06      2.06      2.20      0.01         0.01
  521                         0.19      0.19      4.38      0.01         0.01
  503                         0.22      0.22      4.34      0.01         0.01
  324                         1.36      1.36      1.43      0.01         0.01
  523                         0.72      0.72      0.97      0.01         0.01
  506                         0.19      0.19      4.34      0.01         0.01
  312                         1.61      1.61      1.63      0.01         0.01
  258                         0.55      0.55      0.71      0.01         0.01
  518                         0.26      0.26      4.55      0.01         0.01
  399                         0.01      0.01      4.55      0.01         0.01
  36                          1.91      1.93      1.91      0.78         0.70
  335                         1.44      1.61      1.46      0.90         0.65
  74                          2.07      2.07      2.09      0.10         0.09
  396                         0.26      0.26      0.60      0.01         0.01
  222                         1.82      1.82      1.89      0.11         0.10
  228                         0.79      0.79      0.98      0.02         0.01
  236                         1.14      1.14      1.28      0.01         0.01
  66                          1.66      1.66      2.06      0.01         0.01
  65                          1.78      1.78      2.07      0.01         0.01
  64                          2.06      2.09      2.14      0.53         0.46
  517                         0.29      0.29      4.39      0.01         0.01
  325                         1.32      1.32      1.36      0.02         0.02
  313                         1.59      1.59      1.61      0.01         0.01
  259                         0.54      0.54      0.75      0.01         0.01
  516                         0.29      0.29      4.59      0.01         0.01
  397                         0.01      0.01      4.59      0.01         0.01
  34                          1.93      1.93      1.93      0.54         0.52
  334                         1.46      1.46      1.61      0.01         0.01
  73                          2.05      2.05      2.07      0.06         0.05
  394                         0.06      0.06      4.23      0.01         0.01
  225                         1.76      1.76      1.82      0.01         0.01
  480                         0.64      0.64      0.79      0.01         0.01
  389                         1.38      1.38      1.55      0.01         0.01
  234                         1.38      1.38      1.66      0.01         0.01
  386                         1.84      1.84      2.03      0.01         0.01
  1                           1.87      1.87      1.94      0.01         0.02
  387                         1.71      1.71      1.78      0.01         0.01
  515                         0.33      0.33      4.40      0.01         0.01
  502                         0.25      0.25      4.35      0.01         0.01
  326                         1.29      1.29      1.32      0.01         0.01
  311                         1.57      1.57      1.59      0.01         0.01
  260                         0.56      0.56      0.76      0.01         0.01
  514                         0.33      0.33      4.61      0.01         0.01
  395                         0.01      0.01      4.61      0.01         0.01
  33                          1.86      1.86      1.93      0.05         0.05
  333                         1.40      1.40      1.46      0.05         0.04
  72                          2.04      2.04      2.05      0.04         0.03
  478                         0.41      0.65      0.61      0.28         0.03
  392                         0.16      0.16      4.24      0.01         0.01
  226                         1.70      1.70      1.76      0.01         0.01
  513                         0.35      0.35      4.41      0.01         0.01
  327                         1.26      1.26      1.29      0.01         0.01
  507                         0.25      0.25      4.35      0.01         0.01
  310                         1.55      1.55      1.57      0.01         0.02
  261                         0.56      0.56      0.77      0.01         0.01
  512                         0.35      0.35      4.63      0.01         0.01
  393                         0.06      0.06      4.63      0.01         0.01
  32                          1.74      1.74      1.86      0.02         0.01
  332                         1.30      1.30      1.40      0.01         0.01
  71                          2.03      2.03      2.04      0.04         0.03
  227                         1.51      1.51      1.70      0.01         0.01
  511                         0.34      0.34      4.41      0.01         0.01
  501                         0.32      0.32      4.38      0.01         0.01
  329                         1.22      1.22      1.26      0.01         0.01
  309                         1.53      1.53      1.55      0.23         0.16
  262                         0.57      0.57      0.78      0.01         0.01
  510                         0.94      0.94      1.32      0.01         0.01
  31                          1.68      1.68      1.74      0.01         0.01
  331                         1.15      1.15      1.30      0.01         0.01
  479                         0.01      0.01      4.33      0.01         0.01
  70                          2.00      2.00      2.03      0.06         0.04
  390                         0.27      0.27      4.26      0.01         0.01
  273                         0.06      0.06      1.31      0.01         0.01
  509                         0.33      0.33      4.42      0.01         0.01
  500                         0.35      0.35      4.39      0.01         0.01
  299                         1.19      1.19      1.22      0.01         0.01
  508                         0.30      0.30      4.36      0.01         0.01
  308                         1.51      1.51      1.53      0.17         0.10
  263                         0.61      0.61      0.80      0.01         0.01
  391                         0.21      0.21      4.58      0.01         0.01
  30                          1.63      1.63      1.68      0.01         0.01
  330                         1.01      1.01      1.15      0.01         0.01
  29                          1.94      1.94      2.00      0.08         0.05
  495                         0.65      0.65      0.96      0.01         0.01
  486                         0.66      0.66      0.85      0.01         0.01
  298                         1.18      1.36      1.19      0.72         0.47
  307                         1.49      1.49      1.51      0.09         0.08
  264                         0.67      0.76      0.83      0.17         0.01
  300                         1.16      1.16      1.63      0.01         0.01
  496                         0.89      0.89      1.01      0.01         0.01
  372                         0.48      0.62      4.39      0.15         0.01
  303                         1.89      1.89      1.94      0.01         0.02
  497                         0.76      0.76      1.15      0.01         0.01
  487                         0.78      0.78      1.02      0.01         0.01
  297                         1.31      1.36      1.36      0.67         0.58
  282                         1.47      1.47      1.49      0.01         0.01
  265                         0.71      0.96      0.81      0.73         0.44
  301                         1.05      1.05      1.16      0.01         0.01
  302                         1.10      1.23      1.14      0.99         0.78
  304                         1.84      1.84      1.89      0.01         0.01
  272                         0.68      0.68      1.35      0.01         0.01
  498                         0.92      0.92      1.30      0.01         0.01
  488                         0.93      0.93      1.17      0.01         0.01
  283                         1.43      1.43      1.47      0.01         0.01
  281                         1.41      1.41      1.46      0.19         0.13
  499                         0.94      0.94      1.05      0.01         0.01
  296                         1.08      1.21      1.19      0.20         0.03
  305                         1.79      1.79      1.84      0.01         0.01
  113                         1.39      1.39      1.41      0.08         0.02
  285                         1.40      1.40      1.44      0.01         0.01
  293                         1.78      1.79      1.79      0.54         0.39
  294                         1.11      1.11      1.20      0.08         0.01
  494                         0.87      0.87      1.19      0.01         0.01
  489                         0.88      0.88      1.17      0.01         0.01
  101                         1.36      1.37      1.39      0.14         0.05
  286                         1.32      1.32      1.40      0.01         0.01
  280                         0.98      0.98      1.07      0.01         0.02
  493                         0.85      0.85      1.02      0.01         0.01
  287                         0.94      0.94      1.11      0.01         0.01
  288                         1.09      1.32      1.26      0.35         0.11
  292                         1.75      1.76      1.79      0.19         0.10
  90                          1.32      1.37      1.37      0.16         0.06
  485                         0.72      0.72      0.97      0.01         0.01
  484                         0.72      0.72      0.97      0.01         0.01
  124                         0.80      0.84      0.89      0.09         0.04
  490                         0.44      0.44      4.46      0.01         0.01
  278                         1.24      1.24      1.32      0.01         0.01
  491                         0.83      0.83      0.94      0.01         0.01
  290                         1.71      1.71      1.76      0.01         0.01
  271                         0.90      0.90      1.20      0.01         0.01
  289                         1.51      1.64      1.54      0.31         0.10
  492                         1.14      1.14      1.32      0.01         0.01
  440                         0.84      0.84      0.95      0.01         0.01
  79                          1.25      1.25      1.37      0.01         0.01
  268                         1.21      1.21      1.24      0.01         0.01
  135                         0.85      0.85      1.03      0.01         0.01
  224                         1.60      1.65      1.64      0.33         0.24
  317                         1.28      1.28      1.38      0.02         0.01
  291                         1.65      1.65      1.71      0.01         0.01
  68                          1.21      1.21      1.25      0.01         0.01
  410                         0.69      0.69      0.85      0.01         0.01
  257                         1.18      1.34      1.21      0.34         0.14
  146                         0.72      0.72      0.91      0.01         0.01
  482                         0.96      0.96      4.57      0.01         0.01
  212                         1.65      1.67      1.65      0.52         0.44
  190                         1.31      1.31      1.48      0.07         0.04
  328                         1.61      1.61      1.65      0.01         0.01
  519                         0.89      0.89      4.44      0.01         0.01
  477                         0.90      0.90      1.01      0.01         0.01
  306                         1.19      1.19      1.28      0.01         0.01
  447                         0.89      0.89      0.95      0.01         0.01
  57                          1.16      1.16      1.21      0.01         0.02
  246                         1.31      1.31      1.34      0.21         0.21
  157                         0.96      0.96      1.11      0.01         0.01
  24                          1.19      1.28      1.31      0.63         0.50
  201                         1.53      1.53      1.67      0.29         0.30
  339                         1.58      1.58      1.61      0.01         0.01
  295                         1.15      1.15      1.19      0.04         0.02
  2                           0.97      0.97      1.08      0.07         0.01
  46                          1.09      1.09      1.16      0.14         0.15
  383                         0.80      0.80      0.96      0.01         0.01
  235                         1.29      1.37      1.31      0.85         0.69
  168                         1.00      1.02      1.12      0.17         0.12
  13                          1.46      1.46      1.53      0.20         0.22
  112                         1.52      1.63      1.58      0.28         0.17
  266                         0.96      0.96      1.08      0.01         0.01
  284                         1.12      1.12      1.15      0.08         0.01
  454                         0.90      0.90      0.98      0.01         0.01
  35                          0.96      0.96      1.09      0.07         0.05
  179                         1.23      1.23      1.37      0.11         0.12
  367                         1.42      1.42      1.46      0.01         0.01
  350                         1.42      1.42      1.46      0.01         0.01
  483                         0.92      0.92      4.48      0.01         0.01
  233                         1.29      1.29      1.63      0.03         0.06
  232                         1.03      1.03      1.15      0.06         0.02
  267                         0.98      1.06      1.08      0.18         0.04
  223                         1.10      1.31      1.13      0.45         0.16
  369                         0.91      0.91      0.96      0.02         0.03
  373                         1.16      1.16      1.23      0.01         0.01
  270                         1.06      1.06      1.29      0.01         0.01
  269                         1.16      1.16      1.31      0.22         0.23
  

  Analysis begun on:  Wed Dec 22 20:06:06 2021
  Analysis ended on:  Wed Dec 22 20:06:07 2021
  Total elapsed time: 00:00:01