
  EPA STORM WATER MANAGEMENT MODEL - VERSION 5.1 (Build 5.3.0.dev0)
  --------------------------------------------------------------

  
  *********************************************************
  NOTE: The summary statistics displayed in this report are
  based on results found at every computational time step,  
  not just on results from each reporting time step.
  *********************************************************
  
  ****************
  Analysis Options
  ****************
  Flow Units ............... CMS
  Process Models:
    Rainfall/Runoff ........ YES
    RDII ................... NO
    Snowmelt ............... NO
    Groundwater ............ NO
    Flow Routing ........... YES
    Ponding Allowed ........ YES
    Water Quality .......... NO
  Infiltration Method ...... HORTON
  Flow Routing Method ...... DYNWAVE
  Surcharge Method ......... EXTRAN
  Starting Date ............ 12/15/2017 00:00:00
  Ending Date .............. 12/15/2017 06:00:00
  Antecedent Dry Days ...... 0.0
  Report Time Step ......... 00:01:00
  Wet Time Step ............ 00:01:00
  Dry Time Step ............ 06:00:00
  Routing Time Step ........ 30.00 sec
  Variable Time Step ....... YES
  Maximum Trials ........... 8
  Number of Threads ........ 1
  Head Tolerance ........... 0.001500 m
  
  
  **************************        Volume         Depth
  Runoff Quantity Continuity     hectare-m            mm
  **************************     ---------       -------
  Total Precipitation ......        11.436        23.286
  Evaporation Loss .........         0.000         0.000
  Infiltration Loss ........         1.331         2.710
  Surface Runoff ...........         8.976        18.277
  Final Storage ............         1.130         2.300
  Continuity Error (%) .....        -0.011
  
  
  **************************        Volume        Volume
  Flow Routing Continuity        hectare-m      10^6 ltr
  **************************     ---------     ---------
  Dry Weather Inflow .......         0.000         0.000
  Wet Weather Inflow .......         8.979        89.791
  Groundwater Inflow .......         0.000         0.000
  RDII Inflow ..............         0.000         0.000
  External Inflow ..........         0.000         0.000
  External Outflow .........         8.925        89.254
  Flooding Loss ............         0.000         0.000
  Evaporation Loss .........         0.000         0.000
  Exfiltration Loss ........         0.000         0.000
  Initial Stored Volume ....         0.000         0.000
  Final Stored Volume ......         0.047         0.472
  Continuity Error (%) .....         0.071
  
  
  *************************
  Highest Continuity Errors
  *************************
  Node 302 (5.99%)
  Node 247 (-5.72%)
  Node 227 (4.81%)
  Node 22 (-4.42%)
  Node 81 (3.57%)
  
  
  ***************************
  Time-Step Critical Elements
  ***************************
  Link 26 (41.29%)
  Link 163 (9.78%)
  Link 223 (9.25%)
  Link 136 (3.94%)
  Link 342 (2.18%)
  
  
  ********************************
  Highest Flow Instability Indexes
  ********************************
  Link 499 (25)
  Link 496 (23)
  Link 357 (23)
  Link 364 (21)
  Link 436 (18)
  
  
  *************************
  Routing Time Step Summary
  *************************
  Minimum Time Step           :     0.50 sec
  Average Time Step           :    10.24 sec
  Maximum Time Step           :    30.00 sec
  Percent in Steady State     :     0.65
  Average Iterations per Step :     4.82
  Percent Not Converging      :    36.85
  
  
  ***************************
  Subcatchment Runoff Summary
  ***************************
  
  ------------------------------------------------------------------------------------------------------------------------------
                            Total      Total      Total      Total     Imperv       Perv      Total       Total     Peak  Runoff
                           Precip      Runon       Evap      Infil     Runoff     Runoff     Runoff      Runoff   Runoff   Coeff
  Subcatchment                 mm         mm         mm         mm         mm         mm         mm    10^6 ltr      CMS
  ------------------------------------------------------------------------------------------------------------------------------
  532                       23.29       0.00       0.00       2.46      17.57       1.12      18.69        0.39     0.16   0.803
  533                       23.29       0.00       0.00       2.46      17.57       1.12      18.69        0.27     0.11   0.803
  534                       23.29       0.00       0.00       2.46      17.57       1.12      18.69        0.31     0.12   0.803
  535                       23.29       0.00       0.00       2.46      17.57       1.12      18.69        0.37     0.15   0.803
  536                       23.29       0.00       0.00       2.46      17.57       1.12      18.69        0.35     0.14   0.803
  537                       23.29       0.00       0.00       2.46      17.57       1.12      18.69        0.34     0.14   0.803
  538                       23.29       0.00       0.00       2.46      17.57       1.12      18.69        0.33     0.14   0.803
  539                       23.29       0.00       0.00       2.46      17.57       1.12      18.69        0.32     0.13   0.803
  540                       23.29       0.00       0.00       2.46      17.57       1.12      18.69        0.60     0.24   0.803
  541                       23.29       0.00       0.00       2.46      17.57       1.12      18.69        0.58     0.24   0.803
  542                       23.29       0.00       0.00       2.46      17.57       1.12      18.69        0.28     0.12   0.803
  543                       23.29       0.00       0.00       2.46      17.57       1.12      18.69        0.47     0.19   0.803
  544                       23.29       0.00       0.00       2.46      17.57       1.12      18.69        1.08     0.44   0.803
  545                       23.29       0.00       0.00       2.46      17.57       1.12      18.69        0.44     0.18   0.803
  546                       23.29       0.00       0.00       2.46      17.57       1.12      18.69        0.43     0.18   0.803
  547                       23.29       0.00       0.00       2.46      17.57       1.12      18.69        0.38     0.15   0.803
  548                       23.29       0.00       0.00       2.46      17.57       1.12      18.69        0.31     0.12   0.803
  549                       23.29       0.00       0.00       2.46      17.57       1.12      18.69        0.43     0.18   0.803
  550                       23.29       0.00       0.00       2.46      17.57       1.12      18.69        0.44     0.18   0.803
  551                       23.29       0.00       0.00       2.46      17.57       1.12      18.69        0.21     0.09   0.803
  552                       23.29       0.00       0.00       2.46      17.57       1.12      18.69        0.22     0.09   0.803
  553                       23.29       0.00       0.00       2.46      17.57       1.12      18.69        0.21     0.09   0.803
  554                       23.29       0.00       0.00       2.46      17.57       1.12      18.69        0.21     0.09   0.803
  555                       23.29       0.00       0.00       2.46      17.57       1.12      18.69        0.21     0.09   0.803
  556                       23.29       0.00       0.00       2.46      17.57       1.12      18.69        0.21     0.09   0.803
  557                       23.29       0.00       0.00       2.46      17.57       1.12      18.69        0.21     0.09   0.803
  558                       23.29       0.00       0.00       2.46      17.57       1.12      18.69        0.43     0.17   0.803
  559                       23.29       0.00       0.00       2.46      17.57       1.12      18.69        0.22     0.09   0.803
  560                       23.29       0.00       0.00       2.46      17.57       1.12      18.69        0.41     0.17   0.803
  561                       23.29       0.00       0.00       2.46      17.57       1.12      18.69        0.43     0.18   0.803
  562                       23.29       0.00       0.00       2.46      17.57       1.12      18.69        0.37     0.15   0.803
  563                       23.29       0.00       0.00       2.46      17.57       1.12      18.69        0.67     0.27   0.803
  564                       23.29       0.00       0.00       2.46      17.57       1.12      18.69        0.63     0.26   0.803
  565                       23.29       0.00       0.00       2.46      17.57       1.12      18.69        0.60     0.25   0.803
  566                       23.29       0.00       0.00       2.46      17.57       1.12      18.69        0.53     0.22   0.803
  567                       23.29       0.00       0.00       2.46      17.57       1.12      18.69        0.48     0.19   0.803
  568                       23.29       0.00       0.00       2.46      17.57       1.12      18.69        0.43     0.18   0.803
  569                       23.29       0.00       0.00       2.46      17.57       1.12      18.69        0.44     0.18   0.803
  570                       23.29       0.00       0.00       2.46      17.57       1.12      18.69        0.38     0.15   0.803
  571                       23.29       0.00       0.00       2.46      17.57       1.12      18.69        0.66     0.27   0.803
  572                       23.29       0.00       0.00       2.46      17.57       1.12      18.69        0.31     0.12   0.803
  573                       23.29       0.00       0.00       2.46      17.57       1.12      18.69        0.30     0.12   0.803
  574                       23.29       0.00       0.00       2.46      17.57       1.12      18.69        0.29     0.12   0.803
  575                       23.29       0.00       0.00       2.46      17.57       1.12      18.69        0.27     0.11   0.803
  576                       23.29       0.00       0.00       2.46      17.57       1.12      18.69        0.26     0.11   0.803
  577                       23.29       0.00       0.00       2.46      17.57       1.12      18.69        0.24     0.10   0.803
  578                       23.29       0.00       0.00       2.46      17.57       1.12      18.69        0.24     0.10   0.803
  579                       23.29       0.00       0.00       2.46      17.57       1.12      18.69        0.45     0.18   0.803
  580                       23.29       0.00       0.00       2.46      17.57       1.12      18.69        0.21     0.08   0.803
  581                       23.29       0.00       0.00       2.46      17.57       1.12      18.69        0.37     0.15   0.803
  582                       23.29       0.00       0.00       2.46      17.57       1.12      18.69        0.33     0.14   0.803
  583                       23.29       0.00       0.00       2.46      17.57       1.12      18.69        0.57     0.23   0.803
  584                       23.29       0.00       0.00       2.46      17.57       1.12      18.69        0.56     0.23   0.803
  585                       23.29       0.00       0.00       2.46      17.57       1.12      18.69        0.49     0.20   0.803
  586                       23.29       0.00       0.00       2.46      17.57       1.12      18.69        0.36     0.15   0.803
  587                       23.29       0.00       0.00       2.46      17.57       1.12      18.69        0.35     0.14   0.803
  588                       23.29       0.00       0.00       2.46      17.57       1.12      18.69        0.36     0.14   0.803
  589                       23.29       0.00       0.00       2.46      17.57       1.12      18.69        0.35     0.14   0.803
  590                       23.29       0.00       0.00       2.46      17.57       1.12      18.69        0.35     0.14   0.803
  591                       23.29       0.00       0.00       2.46      17.57       1.12      18.69        0.36     0.15   0.803
  592                       23.29       0.00       0.00       2.46      17.57       1.12      18.69        0.36     0.15   0.803
  593                       23.29       0.00       0.00       2.46      17.57       1.12      18.69        0.37     0.15   0.803
  594                       23.29       0.00       0.00       2.46      17.57       1.12      18.69        0.36     0.15   0.803
  595                       23.29       0.00       0.00       2.46      17.57       1.12      18.69        0.37     0.15   0.803
  596                       23.29       0.00       0.00       2.46      17.57       1.12      18.69        0.37     0.15   0.803
  597                       23.29       0.00       0.00       2.46      17.57       1.12      18.69        0.37     0.15   0.803
  598                       23.29       0.00       0.00       2.46      17.57       1.12      18.69        0.38     0.16   0.803
  599                       23.29       0.00       0.00       2.46      17.57       1.12      18.69        0.39     0.16   0.803
  600                       23.29       0.00       0.00       2.46      17.57       1.12      18.69        0.38     0.16   0.803
  601                       23.29       0.00       0.00       2.46      17.57       1.12      18.69        0.40     0.16   0.803
  602                       23.29       0.00       0.00       2.46      17.57       1.12      18.69        0.39     0.16   0.803
  603                       23.29       0.00       0.00       2.46      17.57       1.12      18.69        0.40     0.16   0.803
  604                       23.29       0.00       0.00       2.46      17.57       1.12      18.69        0.41     0.17   0.803
  605                       23.29       0.00       0.00       2.46      17.57       1.12      18.69        0.38     0.15   0.803
  606                       23.29       0.00       0.00       2.46      17.57       1.12      18.69        0.39     0.16   0.803
  607                       23.29       0.00       0.00       2.46      17.57       1.12      18.69        0.40     0.16   0.803
  608                       23.29       0.00       0.00       2.46      17.57       1.12      18.69        0.51     0.21   0.803
  609                       23.29       0.00       0.00       2.46      17.57       1.12      18.69        0.52     0.21   0.803
  610                       23.29       0.00       0.00       2.46      17.57       1.12      18.69        0.40     0.16   0.803
  611                       23.29       0.00       0.00       2.46      17.57       1.12      18.69        0.40     0.16   0.803
  612                       23.29       0.00       0.00       2.46      17.57       1.12      18.69        0.43     0.18   0.803
  613                       23.29       0.00       0.00       2.46      17.57       1.12      18.69        0.34     0.14   0.803
  614                       23.29       0.00       0.00       2.46      17.57       1.12      18.69        0.54     0.22   0.803
  615                       23.29       0.00       0.00       2.46      17.57       1.12      18.69        0.67     0.27   0.803
  616                       23.29       0.00       0.00       2.46      17.57       1.12      18.69        0.34     0.14   0.803
  617                       23.29       0.00       0.00       2.46      17.57       1.12      18.69        0.33     0.14   0.803
  618                       23.29       0.00       0.00       2.46      17.57       1.12      18.69        0.34     0.14   0.803
  619                       23.29       0.00       0.00       2.46      17.57       1.12      18.69        0.34     0.14   0.803
  620                       23.29       0.00       0.00       2.46      17.57       1.12      18.69        0.33     0.14   0.803
  621                       23.29       0.00       0.00       2.46      17.57       1.12      18.69        0.34     0.14   0.803
  622                       23.29       0.00       0.00       2.46      17.57       1.12      18.69        0.33     0.14   0.803
  623                       23.29       0.00       0.00       2.46      17.57       1.12      18.69        0.34     0.14   0.803
  624                       23.29       0.00       0.00       2.46      17.57       1.12      18.69        0.34     0.14   0.803
  625                       23.29       0.00       0.00       2.46      17.57       1.12      18.69        0.34     0.14   0.803
  626                       23.29       0.00       0.00       2.46      17.57       1.12      18.69        0.34     0.14   0.803
  627                       23.29       0.00       0.00       2.46      17.57       1.12      18.69        0.34     0.14   0.803
  628                       23.29       0.00       0.00       2.46      17.57       1.12      18.69        0.34     0.14   0.803
  629                       23.29       0.00       0.00       2.46      17.57       1.12      18.69        0.35     0.14   0.803
  630                       23.29       0.00       0.00       2.46      17.57       1.12      18.69        0.33     0.13   0.803
  631                       23.29       0.00       0.00       2.46      17.57       1.12      18.69        0.34     0.14   0.803
  632                       23.29       0.00       0.00       2.46      17.57       1.12      18.69        0.34     0.14   0.803
  633                       23.29       0.00       0.00       2.46      17.57       1.12      18.69        0.36     0.15   0.803
  634                       23.29       0.00       0.00       2.46      17.57       1.12      18.69        0.33     0.14   0.803
  635                       23.29       0.00       0.00       2.46      17.57       1.12      18.69        0.33     0.14   0.803
  636                       23.29       0.00       0.00       2.46      17.57       1.12      18.69        0.32     0.13   0.803
  637                       23.29       0.00       0.00       2.46      17.57       1.12      18.69        0.36     0.15   0.803
  638                       23.29       0.00       0.00       2.46      17.57       1.12      18.69        0.54     0.22   0.803
  639                       23.29       0.00       0.00       2.46      17.57       1.12      18.69        0.42     0.17   0.803
  640                       23.29       0.00       0.00       2.46      17.57       1.12      18.69        0.34     0.14   0.803
  641                       23.29       0.00       0.00       2.46      17.57       1.12      18.69        0.59     0.24   0.803
  642                       23.29       0.00       0.00       2.46      17.57       1.12      18.69        0.33     0.13   0.803
  643                       23.29       0.00       0.00       2.46      17.57       1.12      18.69        0.33     0.14   0.803
  644                       23.29       0.00       0.00       2.46      17.57       1.12      18.69        0.33     0.14   0.803
  645                       23.29       0.00       0.00       2.46      17.57       1.12      18.69        0.33     0.13   0.803
  646                       23.29       0.00       0.00       2.46      17.57       1.12      18.69        0.33     0.13   0.803
  647                       23.29       0.00       0.00       2.46      17.57       1.12      18.69        0.33     0.13   0.803
  648                       23.29       0.00       0.00       2.46      17.57       1.12      18.69        0.33     0.13   0.803
  649                       23.29       0.00       0.00       2.46      17.57       1.12      18.69        0.33     0.13   0.803
  650                       23.29       0.00       0.00       2.46      17.57       1.12      18.69        0.32     0.13   0.803
  651                       23.29       0.00       0.00       2.46      17.57       1.12      18.69        0.33     0.13   0.803
  652                       23.29       0.00       0.00       2.46      17.57       1.12      18.69        0.33     0.13   0.803
  653                       23.29       0.00       0.00       2.46      17.57       1.12      18.69        0.33     0.13   0.803
  654                       23.29       0.00       0.00       2.46      17.57       1.12      18.69        0.33     0.13   0.803
  655                       23.29       0.00       0.00       2.46      17.57       1.12      18.69        0.33     0.13   0.803
  656                       23.29       0.00       0.00       2.46      17.57       1.12      18.69        0.33     0.13   0.803
  657                       23.29       0.00       0.00       2.46      17.57       1.12      18.69        0.33     0.13   0.803
  658                       23.29       0.00       0.00       2.46      17.57       1.12      18.69        0.33     0.13   0.803
  659                       23.29       0.00       0.00       2.46      17.57       1.12      18.69        0.33     0.13   0.803
  660                       23.29       0.00       0.00       2.46      17.57       1.12      18.69        0.33     0.13   0.803
  661                       23.29       0.00       0.00       2.46      17.57       1.12      18.69        0.33     0.14   0.803
  662                       23.29       0.00       0.00       2.46      17.57       1.12      18.69        0.50     0.20   0.803
  663                       23.29       0.00       0.00       2.46      17.57       1.12      18.69        0.33     0.14   0.803
  664                       23.29       0.00       0.00       2.46      17.57       1.12      18.69        1.57     0.64   0.803
  665                       23.29       0.00       0.00       2.46      17.57       1.12      18.69        1.42     0.58   0.803
  666                       23.29       0.00       0.00       2.46      17.57       1.12      18.69        1.12     0.46   0.803
  667                       23.29       0.00       0.00       2.46      17.57       1.12      18.69        0.60     0.24   0.803
  668                       23.29       0.00       0.00       2.46      17.57       1.12      18.69        0.49     0.20   0.803
  669                       23.29       0.00       0.00       2.46      17.57       1.12      18.69        0.50     0.20   0.803
  670                       23.29       0.00       0.00       2.46      17.57       1.12      18.69        0.49     0.20   0.803
  671                       23.29       0.00       0.00       2.46      17.57       1.12      18.69        0.49     0.20   0.803
  672                       23.29       0.00       0.00       2.46      17.57       1.12      18.69        0.75     0.30   0.803
  673                       23.29       0.00       0.00       2.46      17.57       1.12      18.69        0.64     0.26   0.803
  674                       23.29       0.00       0.00       2.46      17.57       1.12      18.69        0.93     0.38   0.803
  675                       23.29       0.00       0.00       2.46      17.57       1.12      18.69        0.88     0.36   0.803
  676                       23.29       0.00       0.00       2.46      17.57       1.12      18.69        0.85     0.35   0.803
  677                       23.29       0.00       0.00       2.46      17.57       1.12      18.69        0.75     0.30   0.803
  678                       23.29       0.00       0.00       2.46      17.57       1.12      18.69        0.77     0.31   0.803
  679                       23.29       0.00       0.00       2.46      17.57       1.12      18.69        0.66     0.27   0.803
  680                       23.29       0.00       0.00       2.46      17.57       1.12      18.69        0.28     0.11   0.803
  681                       23.29       0.00       0.00       2.46      17.57       1.12      18.69        0.50     0.21   0.803
  682                       23.29       0.00       0.00       2.46      17.57       1.12      18.69        0.41     0.17   0.803
  683                       23.29       0.00       0.00       2.46      17.57       1.12      18.69        0.41     0.17   0.803
  684                       23.29       0.00       0.00       2.46      17.57       1.12      18.69        0.66     0.27   0.803
  685                       23.29       0.00       0.00       2.46      17.57       1.12      18.69        0.63     0.26   0.803
  686                       23.29       0.00       0.00       2.46      17.57       1.12      18.69        0.80     0.32   0.803
  687                       23.29       0.00       0.00       9.86       4.43       2.50       6.93        1.25     0.44   0.297
  688                       23.29       0.00       0.00       2.46      17.57       1.12      18.69        0.37     0.15   0.803
  689                       23.29       0.00       0.00       2.46      17.57       1.12      18.69        0.35     0.14   0.803
  690                       23.29       0.00       0.00       2.46      17.57       1.12      18.69        0.87     0.35   0.803
  691                       23.29       0.00       0.00       2.46      17.57       1.12      18.69        1.11     0.45   0.803
  692                       23.29       0.00       0.00       2.46      17.57       1.12      18.69        0.62     0.25   0.803
  693                       23.29       0.00       0.00       2.46      17.57       1.12      18.69        0.63     0.26   0.803
  694                       23.29       0.00       0.00       2.46      17.57       1.12      18.69        1.14     0.46   0.803
  695                       23.29       0.00       0.00       2.46      17.57       1.12      18.69        0.25     0.10   0.803
  696                       23.29       0.00       0.00       2.46      17.57       1.12      18.69        0.34     0.14   0.803
  697                       23.29       0.00       0.00       2.46      17.57       1.12      18.69        0.40     0.16   0.803
  698                       23.29       0.00       0.00       2.46      17.57       1.12      18.69        0.69     0.28   0.803
  699                       23.29       0.00       0.00       2.46      17.57       1.12      18.69        0.54     0.22   0.803
  700                       23.29       0.00       0.00       2.46      17.57       1.12      18.69        0.68     0.28   0.803
  701                       23.29       0.00       0.00       2.46      17.57       1.12      18.69        0.51     0.21   0.803
  702                       23.29       0.00       0.00       2.46      17.57       1.12      18.69        0.31     0.13   0.803
  703                       23.29       0.00       0.00       2.46      17.57       1.12      18.69        0.49     0.20   0.803
  704                       23.29       0.00       0.00       2.46      17.57       1.12      18.69        0.50     0.21   0.803
  705                       23.29       0.00       0.00       2.46      17.57       1.12      18.69        0.27     0.11   0.803
  706                       23.29       0.00       0.00       2.46      17.57       1.12      18.69        0.22     0.09   0.803
  707                       23.29       0.00       0.00       2.46      17.57       1.12      18.69        0.44     0.18   0.803
  708                       23.29       0.00       0.00       2.46      17.57       1.12      18.69        0.61     0.25   0.803
  709                       23.29       0.00       0.00       2.46      17.57       1.12      18.69        0.29     0.12   0.803
  710                       23.29       0.00       0.00       2.46      17.57       1.12      18.69        0.19     0.08   0.803
  711                       23.29       0.00       0.00       2.46      17.57       1.12      18.69        0.16     0.06   0.803
  712                       23.29       0.00       0.00       2.46      17.57       1.12      18.69        0.46     0.19   0.803
  713                       23.29       0.00       0.00       2.46      17.57       1.12      18.69        0.19     0.08   0.803
  714                       23.29       0.00       0.00       2.46      17.57       1.12      18.69        0.19     0.08   0.803
  715                       23.29       0.00       0.00       2.46      17.57       1.12      18.69        0.19     0.08   0.803
  716                       23.29       0.00       0.00       2.46      17.57       1.12      18.69        0.19     0.08   0.803
  717                       23.29       0.00       0.00       2.46      17.57       1.12      18.69        0.19     0.08   0.803
  718                       23.29       0.00       0.00       2.46      17.57       1.12      18.69        0.28     0.11   0.803
  719                       23.29       0.00       0.00       2.46      17.57       1.12      18.69        0.28     0.11   0.803
  720                       23.29       0.00       0.00       2.46      17.57       1.12      18.69        0.28     0.11   0.803
  721                       23.29       0.00       0.00       2.46      17.57       1.12      18.69        0.28     0.11   0.803
  722                       23.29       0.00       0.00       2.46      17.57       1.12      18.69        0.28     0.11   0.803
  723                       23.29       0.00       0.00       2.46      17.57       1.12      18.69        0.28     0.11   0.803
  724                       23.29       0.00       0.00       2.46      17.57       1.12      18.69        0.28     0.11   0.803
  725                       23.29       0.00       0.00       2.46      17.57       1.12      18.69        0.28     0.11   0.803
  726                       23.29       0.00       0.00       2.46      17.57       1.12      18.69        0.28     0.11   0.803
  727                       23.29       0.00       0.00       2.46      17.57       1.12      18.69        0.28     0.11   0.803
  728                       23.29       0.00       0.00       2.46      17.57       1.12      18.69        0.28     0.11   0.803
  729                       23.29       0.00       0.00       2.46      17.57       1.12      18.69        0.28     0.11   0.803
  730                       23.29       0.00       0.00       2.46      17.57       1.12      18.69        0.28     0.11   0.803
  731                       23.29       0.00       0.00       2.46      17.57       1.12      18.69        0.28     0.11   0.803
  732                       23.29       0.00       0.00       2.46      17.57       1.12      18.69        0.28     0.11   0.803
  733                       23.29       0.00       0.00       2.46      17.57       1.12      18.69        0.28     0.11   0.803
  734                       23.29       0.00       0.00       2.46      17.57       1.12      18.69        0.28     0.11   0.803
  735                       23.29       0.00       0.00       2.46      17.57       1.12      18.69        0.28     0.11   0.803
  736                       23.29       0.00       0.00       2.46      17.57       1.12      18.69        0.28     0.11   0.803
  737                       23.29       0.00       0.00       2.46      17.57       1.12      18.69        0.28     0.11   0.803
  738                       23.29       0.00       0.00       2.46      17.57       1.12      18.69        0.28     0.11   0.803
  739                       23.29       0.00       0.00       2.46      17.57       1.12      18.69        0.28     0.11   0.803
  740                       23.29       0.00       0.00       2.46      17.57       1.12      18.69        0.28     0.11   0.803
  741                       23.29       0.00       0.00       2.46      17.57       1.12      18.69        0.28     0.11   0.803
  742                       23.29       0.00       0.00       2.46      17.57       1.12      18.69        0.28     0.11   0.803
  743                       23.29       0.00       0.00       2.46      17.57       1.12      18.69        0.28     0.11   0.803
  744                       23.29       0.00       0.00       2.46      17.57       1.12      18.69        0.19     0.08   0.803
  745                       23.29       0.00       0.00       0.00      17.57       2.81      20.37        0.31     0.12   0.875
  746                       23.29       0.00       0.00       0.00      17.57       2.81      20.37        0.31     0.12   0.875
  747                       23.29       0.00       0.00       0.00      17.57       2.81      20.37        0.41     0.16   0.875
  
  
  ******************
  Node Depth Summary
  ******************
  
  ---------------------------------------------------------------------------------
                                 Average  Maximum  Maximum  Time of Max    Reported
                                   Depth    Depth      HGL   Occurrence   Max Depth
  Node                 Type       Meters   Meters   Meters  days hr:min      Meters
  ---------------------------------------------------------------------------------
  1                    JUNCTION     0.52     1.40    18.25     0  01:53        1.40
  2                    JUNCTION     0.89     2.91    18.14     0  01:58        2.91
  3                    JUNCTION     0.43     1.64    18.14     0  02:00        1.64
  4                    JUNCTION     0.50     1.92    18.09     0  02:03        1.92
  5                    JUNCTION     0.51     1.98    18.08     0  02:03        1.98
  6                    JUNCTION     0.62     2.28    18.07     0  02:01        2.28
  7                    JUNCTION     0.71     2.52    18.06     0  01:59        2.52
  8                    JUNCTION     1.09     3.47    18.06     0  01:59        3.47
  9                    JUNCTION     1.06     3.39    18.07     0  01:58        3.39
  10                   JUNCTION     0.29     1.25    18.10     0  02:03        1.25
  11                   JUNCTION     0.53     1.53    18.15     0  02:15        1.53
  12                   JUNCTION     0.50     1.66    18.51     0  01:50        1.66
  13                   JUNCTION     0.34     1.49    18.05     0  02:00        1.49
  14                   JUNCTION     0.38     1.67    18.04     0  01:58        1.67
  15                   JUNCTION     0.48     1.99    18.03     0  01:57        1.99
  16                   JUNCTION     0.52     2.13    18.02     0  01:55        2.13
  17                   JUNCTION     0.56     2.28    18.01     0  01:54        2.28
  18                   JUNCTION     0.66     2.56    18.01     0  01:49        2.56
  19                   JUNCTION     0.72     2.86    18.00     0  01:44        2.84
  20                   JUNCTION     0.79     3.10    18.00     0  01:44        3.08
  21                   JUNCTION     0.19     1.16    18.01     0  01:48        1.16
  22                   JUNCTION     0.20     1.44    18.00     0  01:36        1.40
  23                   JUNCTION     0.15     1.14    17.99     0  01:53        1.14
  24                   JUNCTION     0.24     1.45    18.01     0  01:56        1.45
  25                   JUNCTION     0.30     1.26    18.11     0  01:58        1.26
  26                   JUNCTION     0.51     1.68    18.19     0  02:02        1.68
  27                   JUNCTION     0.55     1.85    18.23     0  01:57        1.85
  28                   JUNCTION     0.61     1.81    18.14     0  02:08        1.81
  29                   JUNCTION     0.74     2.29    18.13     0  02:01        2.29
  30                   JUNCTION     0.87     2.66    18.14     0  01:59        2.66
  31                   JUNCTION     0.61     2.02    18.15     0  01:56        2.02
  32                   JUNCTION     0.60     2.26    18.05     0  01:55        2.26
  33                   JUNCTION     0.63     2.42    18.02     0  01:53        2.42
  34                   JUNCTION     0.71     2.85    17.97     0  01:49        2.84
  35                   JUNCTION     0.75     2.99    17.98     0  01:43        2.97
  36                   JUNCTION     0.27     1.61    18.00     0  01:35        1.57
  37                   JUNCTION     0.83     3.25    18.00     0  01:44        3.23
  38                   JUNCTION     1.22     4.04    17.91     0  01:46        4.04
  39                   JUNCTION     1.05     3.76    17.93     0  01:46        3.76
  40                   JUNCTION     1.00     3.71    17.98     0  01:43        3.65
  41                   JUNCTION     0.82     3.25    17.98     0  01:43        3.21
  42                   JUNCTION     0.20     1.37    18.00     0  01:42        1.31
  43                   JUNCTION     0.57     1.87    18.22     0  01:50        1.87
  44                   JUNCTION     0.87     2.85    18.05     0  01:57        2.85
  45                   JUNCTION     1.38     4.04    18.03     0  01:57        4.04
  46                   JUNCTION     1.17     3.64    18.05     0  01:56        3.64
  47                   JUNCTION     1.47     4.22    18.00     0  01:55        4.22
  48                   JUNCTION     1.54     4.37    17.95     0  01:50        4.37
  49                   JUNCTION     0.32     1.80    18.00     0  01:36        1.74
  50                   JUNCTION     0.39     1.65    17.98     0  01:43        1.64
  51                   JUNCTION     0.51     1.86    18.02     0  01:49        1.86
  52                   JUNCTION     0.49     2.00    17.93     0  01:46        1.99
  53                   JUNCTION     0.64     2.62    17.91     0  01:46        2.61
  54                   JUNCTION     0.43     1.75    17.96     0  01:44        1.71
  55                   JUNCTION     0.24     1.34    17.96     0  01:44        1.30
  56                   JUNCTION     0.36     1.25    18.05     0  01:50        1.25
  57                   JUNCTION     1.82     4.91    17.85     0  01:50        4.91
  58                   JUNCTION     1.74     4.79    17.90     0  01:50        4.78
  59                   JUNCTION     1.66     4.63    17.92     0  01:50        4.63
  60                   JUNCTION     1.26     4.11    17.90     0  01:46        4.11
  61                   JUNCTION     1.29     4.16    17.88     0  01:44        4.16
  62                   JUNCTION     1.31     4.20    17.84     0  01:46        4.19
  63                   JUNCTION     1.49     4.53    17.80     0  01:46        4.52
  64                   JUNCTION     1.52     4.57    17.78     0  01:46        4.56
  65                   JUNCTION     1.58     4.65    17.73     0  01:46        4.63
  66                   JUNCTION     1.55     4.61    17.76     0  01:46        4.60
  67                   JUNCTION     1.61     4.68    17.70     0  01:47        4.67
  68                   JUNCTION     1.63     4.71    17.67     0  01:47        4.70
  69                   JUNCTION     1.66     4.74    17.65     0  01:47        4.74
  70                   JUNCTION     1.68     4.77    17.62     0  01:50        4.77
  71                   JUNCTION     1.71     4.80    17.59     0  01:50        4.79
  72                   JUNCTION     1.21     3.98    17.52     0  01:50        3.98
  73                   JUNCTION     1.03     3.61    17.62     0  01:50        3.61
  74                   JUNCTION     0.94     3.42    17.68     0  01:50        3.42
  75                   JUNCTION     0.90     3.32    17.71     0  01:50        3.31
  76                   JUNCTION     0.83     3.17    17.82     0  01:45        3.15
  77                   JUNCTION     0.80     3.08    17.86     0  01:45        3.07
  78                   JUNCTION     0.75     2.98    17.88     0  01:45        2.97
  79                   JUNCTION     0.71     2.86    17.89     0  01:45        2.85
  80                   JUNCTION     0.67     2.74    17.90     0  01:46        2.74
  81                   JUNCTION     0.22     1.38    18.00     0  01:45        1.34
  82                   JUNCTION     0.30     1.61    18.00     0  01:45        1.49
  83                   JUNCTION     0.43     1.81    17.97     0  01:45        1.74
  84                   JUNCTION     0.53     2.07    17.95     0  01:46        2.00
  85                   JUNCTION     0.58     2.30    17.97     0  01:46        2.17
  86                   JUNCTION     0.69     2.46    17.86     0  01:46        2.45
  87                   JUNCTION     0.72     2.67    17.77     0  01:47        2.64
  88                   JUNCTION     0.81     2.93    17.69     0  01:49        2.93
  89                   JUNCTION     0.28     1.19    17.64     0  01:50        1.19
  90                   JUNCTION     0.32     1.40    17.60     0  01:50        1.40
  91                   JUNCTION     0.34     1.47    17.57     0  01:53        1.47
  92                   JUNCTION     0.42     1.86    17.49     0  01:50        1.86
  93                   JUNCTION     1.41     4.30    17.49     0  01:50        4.29
  94                   JUNCTION     1.73     4.83    17.56     0  01:50        4.83
  95                   JUNCTION     0.31     1.47    17.53     0  01:43        1.41
  96                   JUNCTION     0.35     1.53    17.46     0  01:49        1.52
  97                   JUNCTION     0.14     0.63    17.13     0  01:48        0.59
  98                   JUNCTION     0.28     1.15    17.06     0  01:53        1.14
  99                   JUNCTION     0.18     0.82    17.07     0  01:53        0.81
  100                  JUNCTION     0.36     1.72    17.96     0  01:44        1.72
  101                  JUNCTION     0.27     1.51    18.02     0  01:48        1.51
  102                  JUNCTION     0.52     1.89    18.12     0  01:45        1.89
  103                  JUNCTION     0.47     1.79    18.16     0  01:46        1.79
  104                  JUNCTION     0.50     1.86    18.14     0  01:48        1.86
  105                  JUNCTION     0.42     1.66    18.16     0  01:53        1.66
  106                  JUNCTION     0.49     1.81    18.09     0  01:46        1.81
  107                  JUNCTION     0.38     1.59    18.09     0  01:54        1.59
  108                  JUNCTION     0.41     1.59    18.19     0  02:02        1.59
  109                  JUNCTION     0.61     2.05    18.23     0  01:47        2.05
  110                  JUNCTION     0.17     1.44    18.00     0  01:34        1.43
  111                  JUNCTION     0.55     2.20    18.00     0  01:34        2.20
  112                  JUNCTION     0.66     2.50    17.94     0  01:32        2.49
  113                  JUNCTION     0.57     2.18    18.00     0  01:31        2.11
  114                  JUNCTION     0.61     2.37    17.99     0  01:32        2.25
  115                  JUNCTION     0.54     2.11    18.00     0  01:24        2.00
  116                  JUNCTION     0.13     0.90    17.51     0  01:48        0.90
  117                  JUNCTION     0.42     1.82    17.56     0  01:47        1.81
  118                  JUNCTION     0.17     0.82    17.44     0  01:34        0.82
  119                  JUNCTION     0.33     1.46    17.00     0  01:54        1.46
  120                  JUNCTION     1.83     4.90    17.34     0  01:50        4.90
  121                  JUNCTION     1.83     4.90    17.37     0  01:53        4.90
  122                  JUNCTION     1.83     4.92    17.45     0  01:53        4.92
  123                  JUNCTION     1.42     4.32    17.47     0  01:53        4.32
  124                  JUNCTION     1.90     5.04    17.78     0  01:50        5.04
  125                  JUNCTION     0.67     2.23    17.89     0  01:46        2.22
  126                  JUNCTION     0.77     2.43    17.88     0  01:46        2.42
  127                  JUNCTION     0.83     2.54    17.90     0  01:46        2.52
  128                  JUNCTION     1.03     2.98    18.04     0  01:31        2.98
  129                  JUNCTION     1.11     3.14    18.00     0  01:24        3.14
  130                  JUNCTION     1.12     3.30    18.00     0  01:24        3.21
  131                  JUNCTION     1.10     3.24    17.79     0  01:30        3.24
  132                  JUNCTION     1.09     3.60    18.00     0  01:29        3.30
  133                  JUNCTION     1.20     3.65    17.63     0  01:48        3.65
  134                  JUNCTION     1.22     3.71    17.58     0  01:49        3.71
  135                  JUNCTION     1.24     3.76    17.53     0  01:49        3.76
  136                  JUNCTION     1.25     3.80    17.47     0  01:49        3.79
  137                  JUNCTION     1.26     3.84    17.41     0  01:49        3.84
  138                  JUNCTION     1.26     3.86    17.32     0  01:50        3.86
  139                  JUNCTION     1.24     3.84    17.20     0  01:50        3.84
  140                  JUNCTION     1.85     4.82    17.06     0  01:50        4.82
  141                  JUNCTION     1.83     4.73    16.92     0  01:54        4.73
  142                  JUNCTION     0.46     1.59    17.48     0  01:35        1.59
  143                  JUNCTION     0.55     2.31    17.43     0  01:47        2.31
  144                  JUNCTION     0.03     0.24    16.37     0  01:48        0.24
  145                  JUNCTION     0.56     2.06    17.45     0  01:40        2.06
  146                  JUNCTION     0.71     2.49    17.46     0  01:40        2.49
  147                  JUNCTION     0.31     1.91    18.00     0  01:31        1.40
  148                  JUNCTION     0.58     2.34    17.28     0  01:44        2.34
  149                  JUNCTION     0.22     1.64    17.73     0  01:34        1.64
  150                  JUNCTION     0.45     1.89    17.69     0  01:42        1.89
  151                  JUNCTION     0.72     2.48    18.01     0  01:28        2.48
  152                  JUNCTION     0.80     2.45    18.11     0  01:45        2.45
  153                  JUNCTION     0.59     2.05    18.12     0  01:46        2.05
  154                  JUNCTION     0.88     2.38    18.10     0  01:55        2.38
  155                  JUNCTION     0.95     2.35    18.14     0  02:07        2.35
  156                  JUNCTION     0.77     1.90    18.17     0  02:04        1.90
  157                  JUNCTION     0.50     1.54    18.16     0  02:14        1.54
  158                  JUNCTION     0.46     1.57    18.07     0  02:11        1.57
  159                  JUNCTION     0.55     1.88    18.25     0  01:47        1.88
  160                  JUNCTION     0.65     2.08    18.25     0  01:49        2.08
  161                  JUNCTION     1.97     5.15    17.66     0  01:53        5.15
  162                  JUNCTION     2.01     5.20    17.60     0  01:53        5.20
  163                  JUNCTION     2.03     5.24    17.56     0  01:54        5.24
  164                  JUNCTION     2.06     5.27    17.51     0  01:54        5.27
  165                  JUNCTION     2.08     5.31    17.47     0  01:54        5.31
  166                  JUNCTION     2.09     5.33    17.41     0  01:54        5.33
  167                  JUNCTION     2.11     5.36    17.36     0  01:54        5.36
  168                  JUNCTION     2.12     5.37    17.29     0  01:54        5.37
  169                  JUNCTION     2.13     5.38    17.21     0  01:54        5.37
  170                  JUNCTION     2.14     5.37    17.13     0  01:54        5.37
  171                  JUNCTION     2.15     5.37    17.05     0  01:54        5.37
  172                  JUNCTION     2.16     5.36    16.96     0  01:54        5.36
  173                  JUNCTION     2.17     5.35    16.87     0  01:54        5.35
  174                  JUNCTION     2.17     5.33    16.77     0  01:54        5.33
  175                  JUNCTION     2.18     5.31    16.67     0  01:54        5.31
  176                  JUNCTION     2.18     5.29    16.57     0  01:54        5.29
  177                  JUNCTION     2.42     5.56    16.46     0  01:54        5.56
  178                  JUNCTION     0.72     2.30    17.54     0  01:31        2.30
  179                  JUNCTION     0.69     2.77    17.32     0  01:46        2.76
  180                  JUNCTION     0.03     0.24    15.71     0  01:53        0.24
  181                  JUNCTION     0.50     1.99    16.95     0  01:36        1.99
  182                  JUNCTION     0.64     2.37    16.78     0  01:43        2.37
  183                  JUNCTION     0.06     0.22    17.07     0  01:36        0.22
  184                  JUNCTION     0.42     1.64    16.16     0  01:45        1.64
  185                  JUNCTION     0.07     0.39    17.24     0  01:38        0.37
  186                  JUNCTION     0.53     2.03    17.18     0  01:38        2.02
  187                  JUNCTION     0.94     2.64    16.84     0  01:32        2.61
  188                  JUNCTION     1.14     3.35    17.75     0  01:27        3.22
  189                  JUNCTION     1.19     3.34    17.98     0  01:32        3.32
  190                  JUNCTION     1.09     2.89    18.07     0  01:48        2.89
  191                  JUNCTION     1.04     2.61    18.10     0  01:58        2.61
  192                  JUNCTION     0.54     1.76    18.14     0  02:11        1.76
  193                  JUNCTION     0.75     2.31    18.11     0  02:00        2.31
  194                  JUNCTION     1.21     3.23    18.10     0  01:58        3.23
  195                  JUNCTION     0.36     1.28    18.13     0  01:50        1.28
  196                  JUNCTION     0.55     1.84    18.22     0  01:50        1.84
  197                  JUNCTION     0.67     2.23    18.15     0  01:47        2.23
  198                  JUNCTION     1.40     3.67    18.09     0  01:53        3.67
  199                  JUNCTION     1.52     3.98    18.05     0  01:45        3.98
  200                  JUNCTION     0.63     2.11    18.15     0  01:44        2.11
  201                  JUNCTION     0.48     1.67    18.15     0  01:43        1.67
  202                  JUNCTION     0.36     1.38    18.18     0  01:39        1.38
  203                  JUNCTION     0.29     1.48    18.01     0  01:31        1.48
  204                  JUNCTION     0.39     1.98    18.00     0  01:25        1.87
  205                  JUNCTION     1.37     4.18    18.00     0  01:27        3.98
  206                  JUNCTION     1.08     3.87    17.40     0  01:30        3.85
  207                  JUNCTION     0.16     1.66    18.00     0  01:27        1.21
  208                  JUNCTION     0.05     1.15    18.00     0  01:28        0.64
  209                  JUNCTION     0.64     1.61    15.63     0  01:33        1.61
  210                  JUNCTION     0.21     1.09    17.47     0  01:31        1.09
  211                  JUNCTION     0.15     0.54    16.27     0  01:36        0.54
  212                  JUNCTION     0.61     2.21    15.34     0  01:32        2.21
  213                  JUNCTION     0.46     1.37    14.22     0  01:34        1.37
  214                  JUNCTION     0.02     0.14    16.33     0  01:39        0.14
  215                  JUNCTION     0.49     1.05    14.54     0  01:42        1.05
  216                  JUNCTION     0.02     0.16    17.01     0  01:34        0.16
  217                  JUNCTION     0.50     0.99    14.01     0  01:41        0.99
  218                  JUNCTION     0.50     1.02    13.63     0  01:33        1.02
  219                  JUNCTION     0.49     0.97    13.45     0  01:33        0.97
  220                  JUNCTION     0.56     1.12    12.88     0  01:32        1.12
  221                  JUNCTION     0.63     1.32    12.51     0  01:35        1.32
  222                  JUNCTION     0.37     1.31    15.03     0  01:20        1.17
  223                  JUNCTION     0.42     1.52    15.56     0  01:34        1.51
  224                  JUNCTION     0.42     1.58    15.93     0  01:35        1.58
  225                  JUNCTION     0.03     0.23    15.07     0  01:55        0.23
  226                  JUNCTION     0.03     0.23    14.53     0  01:57        0.23
  227                  JUNCTION     0.04     0.22    13.98     0  02:01        0.22
  228                  JUNCTION     0.62     1.31    12.44     0  01:38        1.31
  229                  JUNCTION     0.60     2.28    16.29     0  01:47        2.28
  230                  JUNCTION     0.50     2.42    15.95     0  01:23        1.81
  231                  JUNCTION     0.43     1.77    14.83     0  01:23        1.38
  232                  JUNCTION     0.66     1.39    12.38     0  01:44        1.39
  233                  JUNCTION     0.90     2.95    17.55     0  01:30        2.95
  234                  JUNCTION     0.61     2.47    16.44     0  01:30        2.46
  235                  JUNCTION     0.38     1.34    14.81     0  01:29        1.33
  236                  JUNCTION     0.65     1.39    12.32     0  01:46        1.39
  237                  JUNCTION     2.27     4.97    15.49     0  01:54        4.97
  238                  JUNCTION     1.88     4.04    14.40     0  01:54        4.03
  239                  JUNCTION     1.52     3.14    13.35     0  01:53        3.14
  240                  JUNCTION     1.42     2.69    12.25     0  01:46        2.69
  241                  JUNCTION     1.64     4.14    15.69     0  01:57        4.14
  242                  JUNCTION     0.08     0.26    16.44     0  01:30        0.26
  243                  JUNCTION     0.12     0.39    15.81     0  01:30        0.39
  244                  JUNCTION     0.00     0.00    16.65     0  00:00        0.00
  245                  JUNCTION     0.73     1.88    13.60     0  01:45        1.88
  246                  JUNCTION     1.63     4.13    15.83     0  02:00        4.13
  247                  JUNCTION     0.01     0.08    16.45     0  01:41        0.08
  248                  JUNCTION     0.80     2.96    16.44     0  01:34        2.95
  249                  JUNCTION     0.69     2.48    15.55     0  01:45        2.48
  250                  JUNCTION     1.02     2.92    14.75     0  01:46        2.92
  251                  JUNCTION     1.62     4.15    16.01     0  02:03        4.15
  252                  JUNCTION     0.13     0.90    17.27     0  01:29        0.80
  253                  JUNCTION     0.85     3.16    16.80     0  01:37        3.16
  254                  JUNCTION     1.61     4.18    16.19     0  02:04        4.18
  255                  JUNCTION     0.37     1.73    18.10     0  01:37        1.73
  256                  JUNCTION     0.87     3.28    17.19     0  01:36        3.28
  257                  JUNCTION     0.26     1.73    18.00     0  01:19        1.60
  258                  JUNCTION     1.15     3.63    15.73     0  01:47        3.63
  259                  JUNCTION     1.60     4.22    16.38     0  02:04        4.22
  260                  JUNCTION     0.17     1.68    18.00     0  01:30        1.68
  261                  JUNCTION     0.86     3.26    17.37     0  01:35        3.23
  262                  JUNCTION     0.02     0.19    17.04     0  01:44        0.19
  263                  JUNCTION     1.20     3.91    16.14     0  01:46        3.91
  264                  JUNCTION     1.59     4.25    16.57     0  02:04        4.25
  265                  JUNCTION     0.71     3.24    18.00     0  01:28        2.76
  266                  JUNCTION     0.86     3.23    17.48     0  01:36        3.23
  267                  JUNCTION     0.90     3.46    17.03     0  01:46        3.46
  268                  JUNCTION     1.23     4.11    16.48     0  01:46        4.10
  269                  JUNCTION     1.56     4.26    16.72     0  02:03        4.26
  270                  JUNCTION     1.54     4.26    16.88     0  02:03        4.26
  271                  JUNCTION     0.55     2.19    17.54     0  01:46        2.19
  272                  JUNCTION     0.11     1.73    18.00     0  01:36        1.73
  273                  JUNCTION     0.95     3.64    17.42     0  01:47        3.64
  274                  JUNCTION     1.04     4.00    17.25     0  01:46        3.96
  275                  JUNCTION     1.51     4.27    17.02     0  02:02        4.27
  276                  JUNCTION     1.45     4.22    17.13     0  02:02        4.22
  277                  JUNCTION     1.31     4.06    17.23     0  02:01        4.05
  278                  JUNCTION     1.23     3.95    17.33     0  02:01        3.95
  279                  JUNCTION     0.41     1.78    18.00     0  01:41        1.71
  280                  JUNCTION     0.43     1.91    17.93     0  01:41        1.85
  281                  JUNCTION     0.83     3.50    18.00     0  01:30        3.45
  282                  JUNCTION     0.45     2.24    17.93     0  01:44        2.24
  283                  JUNCTION     0.48     2.39    17.87     0  01:45        2.39
  284                  JUNCTION     0.09     1.47    18.00     0  01:37        1.10
  285                  JUNCTION     0.94     3.67    17.64     0  01:47        3.67
  286                  JUNCTION     0.94     3.69    17.74     0  01:46        3.69
  287                  JUNCTION     0.91     3.66    17.83     0  01:45        3.66
  288                  JUNCTION     0.89     3.60    17.90     0  01:45        3.59
  289                  JUNCTION     0.21     1.41    17.97     0  01:44        1.40
  290                  JUNCTION     0.91     3.78    17.98     0  01:45        3.76
  291                  JUNCTION     1.02     4.06    17.97     0  01:45        4.03
  292                  JUNCTION     1.06     4.16    17.85     0  01:45        4.14
  293                  JUNCTION     1.06     4.19    17.73     0  01:46        4.15
  294                  JUNCTION     0.72     3.22    18.00     0  01:35        3.19
  295                  JUNCTION     0.09     1.15    18.00     0  01:35        1.12
  296                  JUNCTION     0.77     3.32    17.99     0  01:30        3.30
  297                  JUNCTION     0.71     3.14    17.99     0  01:45        3.13
  298                  JUNCTION     0.14     1.15    18.00     0  01:33        0.83
  299                  JUNCTION     1.14     3.83    17.40     0  02:00        3.82
  300                  JUNCTION     1.06     3.67    17.45     0  02:00        3.66
  301                  JUNCTION     0.97     3.49    17.47     0  02:01        3.49
  302                  JUNCTION     0.81     3.14    17.49     0  02:01        3.14
  303                  JUNCTION     0.20     1.66    18.00     0  01:32        1.66
  304                  JUNCTION     0.45     2.35    18.00     0  01:45        2.35
  305                  JUNCTION     0.33     1.95    18.03     0  01:47        1.95
  306                  JUNCTION     0.55     2.74    18.01     0  01:38        2.74
  307                  JUNCTION     0.39     1.52    18.19     0  01:49        1.52
  308                  JUNCTION     0.60     2.22    18.15     0  01:56        2.22
  309                  JUNCTION     0.31     1.23    18.08     0  02:13        1.23
  310                  JUNCTION     0.44     1.59    18.26     0  01:49        1.59
  311                  JUNCTION     0.40     1.48    18.28     0  01:50        1.48
  312                  JUNCTION     0.27     1.25    18.10     0  01:56        1.25
  313                  JUNCTION     0.32     1.30    18.15     0  01:46        1.30
  314                  JUNCTION     0.35     1.41    18.21     0  01:50        1.41
  315                  JUNCTION     0.33     1.37    18.17     0  01:49        1.37
  316                  JUNCTION     0.37     1.52    18.19     0  01:46        1.52
  317                  JUNCTION     0.38     1.55    18.35     0  01:45        1.55
  318                  JUNCTION     0.17     1.17    18.02     0  01:50        1.17
  319                  JUNCTION     0.15     1.15    18.00     0  01:34        1.14
  320                  JUNCTION     0.14     0.92    17.77     0  01:29        0.91
  321                  JUNCTION     0.11     0.41    17.08     0  01:53        0.40
  322                  JUNCTION     0.14     0.77    17.57     0  01:30        0.76
  323                  JUNCTION     0.04     1.15    18.00     0  01:43        1.02
  324                  JUNCTION     0.13     1.20    18.00     0  01:43        0.71
  325                  JUNCTION     0.13     1.05    17.85     0  01:42        0.78
  326                  JUNCTION     0.13     1.06    17.86     0  01:42        0.81
  327                  JUNCTION     0.17     0.96    17.63     0  01:47        0.96
  328                  JUNCTION     0.16     0.99    17.66     0  01:47        0.98
  329                  JUNCTION     0.08     1.15    18.00     0  01:41        0.82
  330                  JUNCTION     0.20     1.09    17.76     0  01:47        1.06
  331                  JUNCTION     0.08     1.15    18.00     0  01:40        0.91
  332                  JUNCTION     0.15     0.99    17.79     0  01:46        0.96
  333                  JUNCTION     0.09     1.12    17.97     0  01:40        0.92
  334                  JUNCTION     0.09     1.10    17.95     0  01:40        0.94
  335                  JUNCTION     0.15     1.06    17.86     0  01:46        1.05
  336                  JUNCTION     0.19     1.15    18.00     0  01:44        1.13
  337                  JUNCTION     0.40     1.49    18.16     0  01:49        1.49
  338                  JUNCTION     0.23     1.24    18.09     0  02:05        1.24
  339                  JUNCTION     0.31     1.27    18.12     0  02:03        1.27
  340                  JUNCTION     0.35     1.33    18.18     0  02:00        1.33
  341                  JUNCTION     0.28     1.31    18.16     0  02:09        1.31
  342                  JUNCTION     0.19     1.16    18.01     0  01:38        1.16
  343                  JUNCTION     0.14     1.16    18.01     0  01:48        1.16
  344                  JUNCTION     0.04     0.30    17.15     0  02:14        0.30
  345                  JUNCTION     0.09     1.15    18.00     0  01:39        1.15
  346                  JUNCTION     0.04     1.15    18.00     0  01:46        1.15
  348                  JUNCTION     0.00     0.00    16.85     0  00:00        0.00
  349                  JUNCTION     0.11     1.16    18.01     0  01:29        1.16
  350                  JUNCTION     0.36     1.29    18.14     0  02:11        1.29
  z_0512_001_001       JUNCTION     0.41     1.30    18.15     0  02:15        1.30
  z_0512_001_004       JUNCTION     0.27     1.24    18.09     0  01:48        1.24
  z_0512_001_005       JUNCTION     0.33     1.35    18.20     0  02:03        1.35
  z_0512_001_006       JUNCTION     0.10     1.15    18.00     0  01:35        1.15
  z_0512_001_008       JUNCTION     0.18     1.15    18.00     0  01:25        1.15
  z_0512_001_013       JUNCTION     0.09     1.15    18.00     0  01:37        0.67
  z_0512_001_015       JUNCTION     0.10     1.15    18.00     0  01:31        0.59
  z_0512_001_018       JUNCTION     0.41     1.30    18.15     0  02:15        1.30
  z_0512_001_020       JUNCTION     0.21     1.20    18.05     0  02:02        1.20
  z_0512_001_024       JUNCTION     0.36     1.34    18.19     0  02:00        1.34
  z_0512_001_034       JUNCTION     0.17     1.16    18.01     0  01:59        1.16
  z_0512_001_038       JUNCTION     0.40     1.31    18.16     0  02:13        1.31
  z_0512_001_040       JUNCTION     0.31     1.23    18.08     0  02:13        1.23
  z_0512_001_061       JUNCTION     0.13     1.15    18.00     0  01:38        1.11
  z_0512_001_080       JUNCTION     0.35     1.38    18.23     0  01:57        1.38
  z_0512_001_087       JUNCTION     0.17     1.16    18.01     0  01:32        1.16
  z_0512_001_101       JUNCTION     0.00     0.00    16.85     0  00:00        0.00
  z_0512_001_103       JUNCTION     0.00     0.00    16.85     0  00:00        0.00
  z_0512_001_104       JUNCTION     0.02     0.30    17.15     0  01:38        0.30
  z_0512_001_105       JUNCTION     0.19     1.19    18.04     0  02:00        1.19
  z_0512_001_106       JUNCTION     0.20     1.26    18.11     0  01:44        1.26
  z_0512_001_108       JUNCTION     0.04     1.15    18.00     0  01:33        1.15
  z_0512_001_114       JUNCTION     0.05     1.13    17.98     0  01:39        0.80
  z_0512_001_121       JUNCTION     0.09     1.03    17.88     0  01:45        1.02
  z_0512_001_142       JUNCTION     0.15     1.15    18.00     0  01:43        1.09
  z_0512_001_143       JUNCTION     0.35     1.37    18.22     0  01:58        1.37
  z_0512_001_147       JUNCTION     0.16     1.15    18.00     0  01:46        1.15
  z_0512_001_150       JUNCTION     0.17     1.15    18.00     0  01:28        1.15
  z_0512_001_174       JUNCTION     0.11     1.15    18.00     0  01:25        0.79
  z_0512_001_179       JUNCTION     0.04     0.71    17.56     0  01:43        0.61
  z_0512_001_180       JUNCTION     0.02     0.26    17.11     0  01:50        0.25
  z_0512_001_181       JUNCTION     0.15     1.15    18.00     0  01:35        1.10
  347                  OUTFALL      1.05     1.73    11.12     0  01:47        1.73
  
  
  *******************
  Node Inflow Summary
  *******************
  
  -------------------------------------------------------------------------------------------------
                                  Maximum  Maximum                  Lateral       Total        Flow
                                  Lateral    Total  Time of Max      Inflow      Inflow     Balance
                                   Inflow   Inflow   Occurrence      Volume      Volume       Error
  Node                 Type           CMS      CMS  days hr:min    10^6 ltr    10^6 ltr     Percent
  -------------------------------------------------------------------------------------------------
  1                    JUNCTION     0.139    0.139     0  01:30        0.34       0.341       1.037
  2                    JUNCTION     0.133    0.590     0  01:29       0.327        1.37       1.279
  3                    JUNCTION     0.114    0.273     0  01:32        0.28       0.656       0.352
  4                    JUNCTION     0.000    0.374     0  01:30           0       0.967      -0.252
  5                    JUNCTION     0.000    0.374     0  01:30           0       0.996       0.979
  6                    JUNCTION     0.138    0.610     0  01:30       0.338        1.56      -0.408
  7                    JUNCTION     0.090    0.865     0  01:30       0.221        2.16       1.654
  8                    JUNCTION     0.000    0.701     0  01:27           0        2.06       0.081
  9                    JUNCTION     0.296    0.712     0  01:27       0.727        2.03      -0.598
  10                   JUNCTION     0.111    0.111     0  01:30       0.273       0.273       2.371
  11                   JUNCTION     0.139    0.139     0  01:30        0.34       0.413       0.552
  12                   JUNCTION     0.260    0.260     0  01:30       0.639        0.64       0.580
  13                   JUNCTION     0.161    0.187     0  01:30       0.395       0.413       0.273
  14                   JUNCTION     0.000    0.187     0  01:30           0       0.408       0.775
  15                   JUNCTION     0.151    0.278     0  01:31        0.37       0.758      -0.224
  16                   JUNCTION     0.000    0.278     0  01:31           0       0.775       0.124
  17                   JUNCTION     0.000    0.227     0  01:25           0       0.649       0.218
  18                   JUNCTION     0.140    0.408     0  01:30       0.344        1.07      -0.180
  19                   JUNCTION     0.000    0.323     0  01:30           0        1.05       0.324
  20                   JUNCTION     0.076    0.395     0  01:30       0.187        1.23      -0.418
  21                   JUNCTION     0.132    0.148     0  01:32       0.323       0.355       1.757
  22                   JUNCTION     0.000    0.098     0  01:36           0      0.0208      -4.232
  23                   JUNCTION     0.000    0.113     0  01:35           0       0.133       2.937
  24                   JUNCTION     0.000    0.083     0  01:33           0      0.0301       2.627
  25                   JUNCTION     0.145    0.145     0  01:30       0.357       0.358       2.638
  26                   JUNCTION     0.189    0.189     0  01:30       0.464        0.51       0.330
  27                   JUNCTION     0.166    0.333     0  01:23       0.408        1.04       1.178
  28                   JUNCTION     0.000    0.110     0  02:42           0       0.342       1.054
  29                   JUNCTION     0.179    0.257     0  01:30       0.439       0.808       0.814
  30                   JUNCTION     0.000    0.565     0  01:25           0        1.61      -0.906
  31                   JUNCTION     0.268    0.397     0  01:29       0.658        1.15       0.822
  32                   JUNCTION     0.000    0.413     0  01:30           0        1.36      -0.423
  33                   JUNCTION     0.143    0.555     0  01:30       0.352        1.74       0.779
  34                   JUNCTION     0.000    0.553     0  01:30           0        1.82      -0.650
  35                   JUNCTION     0.000    0.559     0  01:31           0        1.85       0.100
  36                   JUNCTION     0.000    0.134     0  01:35           0        0.29      -0.633
  37                   JUNCTION     0.076    0.466     0  01:30       0.187        1.47       1.313
  38                   JUNCTION     0.144    1.210     0  01:26       0.353        5.22      -0.416
  39                   JUNCTION     0.257    0.762     0  01:26       0.632        3.41       0.139
  40                   JUNCTION     0.154    0.781     0  01:27       0.378        2.73      -0.534
  41                   JUNCTION     0.000    0.665     0  01:28           0        1.98       1.063
  42                   JUNCTION     0.000    0.124     0  01:38           0      0.0811      -0.978
  43                   JUNCTION     0.358    0.358     0  01:30       0.879       0.935       1.311
  44                   JUNCTION     0.000    0.501     0  01:29           0        1.57       0.940
  45                   JUNCTION     0.000    1.373     0  01:29           0         4.4      -0.957
  46                   JUNCTION     0.114    0.737     0  01:26        0.28        2.31       0.766
  47                   JUNCTION     0.000    1.611     0  01:30           0        6.01      -0.087
  48                   JUNCTION     0.000    1.665     0  01:26           0        6.86       0.302
  49                   JUNCTION     0.000    0.171     0  01:36           0       0.156      -1.278
  50                   JUNCTION     0.221    0.329     0  01:30       0.542       0.679       3.213
  51                   JUNCTION     0.395    0.476     0  01:30        0.97        1.14      -0.241
  52                   JUNCTION     0.000    0.316     0  01:29           0       0.885       0.856
  53                   JUNCTION     0.355    0.735     0  01:30       0.871        1.81      -0.520
  54                   JUNCTION     0.119    0.285     0  01:25       0.292       0.409       1.764
  55                   JUNCTION     0.000    0.147     0  01:26           0      0.0811       1.044
  56                   JUNCTION     0.510    0.510     0  01:30        1.25        1.25       0.296
  57                   JUNCTION     0.000    2.071     0  01:34           0        8.98       0.113
  58                   JUNCTION     0.201    1.784     0  01:26       0.494        7.83      -0.056
  59                   JUNCTION     0.000    1.591     0  01:26           0        6.91      -0.303
  60                   JUNCTION     0.244    1.907     0  01:25       0.598        7.56      -0.152
  61                   JUNCTION     0.114    2.043     0  01:25        0.28        8.17      -0.049
  62                   JUNCTION     0.159    2.170     0  01:25       0.391        8.79       0.276
  63                   JUNCTION     0.141    2.168     0  01:25       0.346        9.17      -0.290
  64                   JUNCTION     0.279    2.231     0  01:24       0.684        9.92       0.007
  65                   JUNCTION     0.138    2.155     0  01:23       0.338        10.8       0.034
  66                   JUNCTION     0.139    2.224     0  01:24        0.34        10.5      -0.022
  67                   JUNCTION     0.114    2.280     0  01:23        0.28        11.7      -0.043
  68                   JUNCTION     0.114    2.179     0  01:23        0.28          12       0.005
  69                   JUNCTION     0.000    2.121     0  01:41           0        12.3       0.009
  70                   JUNCTION     0.000    2.139     0  01:39           0        12.7      -0.018
  71                   JUNCTION     0.114    2.179     0  01:42        0.28        13.3      -0.002
  72                   JUNCTION     0.136    0.732     0  01:25       0.333        3.52      -0.429
  73                   JUNCTION     0.183    0.745     0  01:26       0.451        3.21       0.828
  74                   JUNCTION     0.000    0.659     0  01:37           0        2.75      -0.070
  75                   JUNCTION     0.000    0.707     0  01:36           0        2.75      -0.006
  76                   JUNCTION     0.000    0.851     0  01:36           0        2.76      -0.157
  77                   JUNCTION     0.136    0.840     0  01:29       0.335        2.71      -0.278
  78                   JUNCTION     0.091    0.826     0  01:35       0.224        2.29      -0.342
  79                   JUNCTION     0.000    0.704     0  01:30           0        1.95      -0.182
  80                   JUNCTION     0.000    0.745     0  01:30           0        1.88      -0.139
  81                   JUNCTION     0.000    0.118     0  01:28           0      0.0696       3.704
  82                   JUNCTION     0.000    0.125     0  01:27           0       0.179      -0.099
  83                   JUNCTION     0.132    0.212     0  01:30       0.325       0.473       0.340
  84                   JUNCTION     0.126    0.222     0  01:30       0.309       0.645       0.021
  85                   JUNCTION     0.000    0.167     0  01:27           0       0.563      -0.287
  86                   JUNCTION     0.323    0.415     0  01:28       0.793        1.26       0.253
  87                   JUNCTION     0.200    0.572     0  01:29       0.492        1.72       0.461
  88                   JUNCTION     0.000    0.536     0  01:29           0        1.72       0.415
  89                   JUNCTION     0.308    0.308     0  01:30       0.755       0.762       0.730
  90                   JUNCTION     0.119    0.372     0  01:30       0.306        1.04      -0.010
  91                   JUNCTION     0.123    0.492     0  01:30       0.303        1.34       0.877
  92                   JUNCTION     0.239    0.724     0  01:30       0.587         1.9      -0.037
  93                   JUNCTION     0.312    1.386     0  01:25       0.767        6.19      -0.318
  94                   JUNCTION     0.125    2.289     0  01:39       0.307        13.8       0.029
  95                   JUNCTION     0.457    0.606     0  01:30        1.12        1.51      -0.217
  96                   JUNCTION     0.226    0.822     0  01:30       0.555        2.07       2.359
  97                   JUNCTION     0.000    0.193     0  01:30           0       0.476       0.278
  98                   JUNCTION     0.065    0.743     0  01:30       0.159        1.87      -0.417
  99                   JUNCTION     0.138    0.310     0  01:30       0.338       0.758       0.244
  100                  JUNCTION     0.133    0.225     0  01:29       0.327       0.576       0.160
  101                  JUNCTION     0.000    0.153     0  01:32           0       0.246      -0.912
  102                  JUNCTION     0.088    0.369     0  01:27       0.215        1.59      -0.364
  103                  JUNCTION     0.140    0.326     0  01:22       0.344       0.893       0.274
  104                  JUNCTION     0.000    0.271     0  01:23           0       0.698      -0.875
  105                  JUNCTION     0.000    0.127     0  02:15           0       0.329      -0.006
  106                  JUNCTION     0.116    0.193     0  01:25       0.284       0.578      -0.611
  107                  JUNCTION     0.000    0.098     0  01:25           0      0.0842      -0.014
  108                  JUNCTION     0.000    0.096     0  02:31           0       0.151       1.845
  109                  JUNCTION     0.270    0.411     0  01:28       0.664        0.83      -0.329
  110                  JUNCTION     0.000    0.100     0  01:33           0      0.0296       0.015
  111                  JUNCTION     0.147    0.263     0  01:25       0.361       0.869       0.547
  112                  JUNCTION     0.442    0.512     0  01:29        1.08         1.8       0.181
  113                  JUNCTION     0.076    0.305     0  01:28       0.187       0.881      -0.531
  114                  JUNCTION     0.000    0.242     0  01:32           0       0.742      -0.146
  115                  JUNCTION     0.114    0.409     0  01:23        0.28        1.64       0.011
  116                  JUNCTION     0.000    0.109     0  01:35           0      0.0999       0.484
  117                  JUNCTION     0.000    0.182     0  01:35           0        0.58      -0.621
  118                  JUNCTION     0.000    0.089     0  01:29           0      0.0693       0.460
  119                  JUNCTION     0.000    0.731     0  01:31           0        1.92       2.845
  120                  JUNCTION     0.000    3.354     0  01:42           0        22.4       0.038
  121                  JUNCTION     0.000    3.482     0  01:42           0        22.4      -0.151
  122                  JUNCTION     0.000    3.377     0  01:40           0        20.4      -0.048
  123                  JUNCTION     0.159    1.424     0  01:26       0.408        6.62       0.323
  124                  JUNCTION     0.389    1.945     0  01:37       0.955        10.1       0.012
  125                  JUNCTION     0.000    0.302     0  01:25           0       0.499       1.445
  126                  JUNCTION     0.000    0.301     0  01:25           0       0.624      -0.098
  127                  JUNCTION     0.000    0.305     0  01:25           0       0.708       0.066
  128                  JUNCTION     0.754    0.754     0  01:30        1.85        2.12       0.089
  129                  JUNCTION     0.251    0.601     0  01:23       0.617        2.01       0.067
  130                  JUNCTION     0.154    0.676     0  01:24       0.378        2.18       0.050
  131                  JUNCTION     0.000    0.593     0  01:25           0        2.09       0.084
  132                  JUNCTION     0.139    0.638     0  01:27       0.342        2.39       0.170
  133                  JUNCTION     0.000    0.952     0  01:30           0        4.04      -0.456
  134                  JUNCTION     0.139    0.968     0  01:32        0.34        4.42      -0.018
  135                  JUNCTION     0.114    0.968     0  01:34        0.28         4.7       0.049
  136                  JUNCTION     0.000    0.885     0  01:35           0         4.7       0.036
  137                  JUNCTION     0.136    0.906     0  01:36       0.335        5.04       0.040
  138                  JUNCTION     0.212    1.047     0  01:24        0.52        5.57       0.052
  139                  JUNCTION     0.152    1.141     0  01:24       0.372        5.94       0.302
  140                  JUNCTION     0.136    4.159     0  01:44       0.333        28.7      -0.007
  141                  JUNCTION     0.221    4.674     0  01:34       0.542        31.2       0.270
  142                  JUNCTION     0.114    0.170     0  01:27        0.28       0.367       1.985
  143                  JUNCTION     0.000    0.134     0  01:28           0       0.523      -0.990
  144                  JUNCTION     0.000    0.088     0  01:46           0       0.114      -1.489
  145                  JUNCTION     0.136    0.442     0  01:25       0.333        1.85      -0.088
[...]
  77                          2.12      2.12      2.13      0.25         0.27
  197                         2.04      2.04      2.08      0.01         0.01
  465                         0.01      0.01      4.56      0.01         0.01
  468                         0.24      0.24      4.49      0.01         0.01
  466                         0.28      0.28      4.52      0.01         0.01
  219                         1.20      1.20      1.25      0.01         0.01
  218                         0.49      0.49      0.70      0.01         0.01
  274                         0.46      0.46      0.54      0.01         0.01
  230                         0.95      0.95      1.42      0.07         0.07
  430                         0.97      0.97      4.50      0.01         0.01
  104                         1.44      1.44      1.68      0.01         0.01
  429                         1.07      1.07      1.35      0.01         0.01
  352                         0.80      0.80      4.60      0.01         0.01
  241                         0.94      0.94      1.15      0.01         0.01
  8                           1.11      1.11      1.26      0.02         0.02
  357                         0.90      0.90      0.96      0.01         0.01
  9                           1.17      1.17      1.21      0.41         0.41
  14                          0.83      0.83      1.15      0.01         0.01
  382                         0.87      0.87      4.53      0.01         0.01
  381                         0.01      0.01      4.53      0.01         0.01
  12                          1.39      1.39      1.53      0.04         0.02
  433                         0.69      0.69      4.58      0.01         0.01
  102                         1.84      2.14      1.85      1.38         0.99
  60                          1.58      1.58      1.69      0.06         0.09
  525                         0.01      0.01      4.28      0.01         0.01
  504                         0.01      0.01      4.29      0.01         0.01
  322                         1.48      1.48      1.55      0.01         0.01
  340                         0.97      0.97      1.02      0.23         0.23
  315                         1.67      1.67      1.69      0.01         0.01
  255                         0.48      0.48      0.67      0.01         0.01
  403                         0.01      0.01      4.30      0.01         0.01
  337                         1.45      1.45      1.61      0.01         0.01
  38                          1.78      1.89      1.78      1.05         0.80
  76                          2.11      2.11      2.12      0.17         0.18
  400                         0.01      0.01      4.16      0.01         0.01
  198                         1.99      1.99      2.04      0.01         0.01
  476                         0.49      0.49      0.80      0.01         0.01
  220                         1.14      1.14      1.20      0.01         0.01
  481                         0.31      0.31      4.46      0.01         0.01
  385                         1.26      1.26      4.50      0.01         0.01
  279                         1.30      1.30      1.33      0.01         0.01
  240                         0.91      0.92      1.11      0.01         0.01
  353                         0.93      0.93      1.01      0.01         0.01
  239                         0.92      0.92      1.07      0.01         0.01
  10                          1.06      1.06      1.17      0.01         0.01
  355                         0.69      0.69      0.83      0.01         0.01
  11                          1.18      1.18      1.38      0.03         0.05
  69                          1.41      1.41      1.58      0.01         0.01
  61                          1.44      1.44      1.58      0.07         0.04
  103                         2.12      2.14      2.14      1.10         1.00
  522                         0.01      0.01      4.32      0.01         0.01
  323                         1.44      1.44      1.48      0.01         0.01
  338                         0.93      0.96      0.97      0.41         0.32
  314                         1.65      1.65      1.67      0.01         0.01
  256                         0.49      0.49      0.71      0.01         0.01
  520                         0.04      0.04      4.50      0.01         0.01
  401                         0.01      0.01      4.50      0.01         0.01
  37                          1.89      1.93      1.89      0.88         0.76
  336                         1.42      1.47      1.45      0.33         0.20
  75                          2.09      2.09      2.11      0.09         0.10
  398                         0.01      0.01      4.18      0.01         0.01
  199                         1.93      1.93      1.99      0.01         0.01
  229                         1.00      1.00      1.14      0.01         0.01
  221                         0.58      0.58      0.82      0.01         0.01
  238                         0.91      0.91      1.06      0.01         0.01
  354                         1.08      1.08      1.18      0.01         0.01
  388                         0.98      0.98      4.58      0.01         0.01
  384                         0.97      0.97      1.19      0.01         0.01
  356                         0.98      0.98      4.61      0.01         0.01
  237                         1.15      1.15      1.32      0.01         0.01
  67                          1.30      1.30      1.41      0.01         0.01
  431                         1.29      1.29      1.70      0.01         0.01
  63                          1.99      1.99      2.14      0.36         0.36
  62                          1.95      1.95      2.07      0.01         0.01
  521                         0.04      0.04      4.35      0.01         0.01
  503                         0.10      0.10      4.31      0.01         0.01
  324                         1.37      1.37      1.44      0.01         0.02
  523                         0.70      0.70      0.96      0.01         0.01
  506                         0.01      0.01      4.30      0.01         0.01
  312                         1.63      1.63      1.65      0.01         0.01
  258                         0.52      0.52      0.69      0.01         0.01
  518                         0.14      0.14      4.54      0.01         0.01
  399                         0.01      0.01      4.54      0.01         0.01
  36                          1.92      1.95      1.93      0.72         0.63
  335                         1.46      1.62      1.47      0.95         0.70
  74                          2.08      2.08      2.09      0.12         0.12
  396                         0.01      0.01      4.20      0.01         0.01
  222                         1.86      1.86      1.93      0.01         0.01
  228                         0.75      0.75      0.99      0.02         0.01
  236                         1.15      1.15      1.30      0.01         0.01
  66                          1.50      1.50      1.89      0.02         0.01
  65                          1.54      1.54      1.92      0.01         0.01
  64                          1.88      1.89      1.99      0.16         0.11
  517                         0.16      0.16      4.41      0.01         0.01
  325                         1.33      1.33      1.37      0.06         0.03
  313                         1.61      1.61      1.63      0.01         0.01
  259                         0.52      0.52      0.73      0.01         0.01
  516                         0.16      0.16      4.59      0.01         0.01
  397                         0.01      0.01      4.59      0.01         0.01
  34                          1.94      1.94      1.95      0.46         0.44
  334                         1.47      1.47      1.62      0.01         0.01
  73                          2.06      2.06      2.08      0.06         0.05
  394                         0.01      0.01      4.20      0.01         0.01
  225                         1.80      1.80      1.86      0.01         0.01
  480                         0.01      0.01      4.47      0.01         0.01
  389                         1.23      1.23      1.38      0.01         0.01
  234                         1.21      1.21      1.50      0.01         0.01
  386                         1.24      1.24      4.62      0.01         0.01
  1                           1.57      1.57      1.75      0.15         0.16
  387                         1.42      1.42      1.54      0.01         0.01
  515                         0.21      0.21      4.42      0.01         0.01
  502                         0.16      0.16      4.37      0.01         0.01
  326                         1.30      1.30      1.33      0.01         0.01
  311                         1.59      1.59      1.61      0.01         0.01
  260                         0.54      0.54      0.74      0.01         0.01
  514                         0.21      0.21      4.61      0.01         0.01
  395                         0.01      0.01      4.61      0.01         0.01
  33                          1.88      1.88      1.94      0.04         0.04
  333                         1.40      1.40      1.47      0.05         0.05
  72                          2.04      2.04      2.06      0.02         0.03
  478                         0.34      0.58      0.67      0.34         0.09
  392                         0.01      0.01      4.21      0.01         0.01
  226                         1.74      1.74      1.80      0.01         0.01
  513                         0.24      0.24      4.43      0.01         0.01
  327                         1.27      1.27      1.30      0.01         0.01
  507                         0.16      0.16      4.35      0.01         0.01
  310                         1.57      1.57      1.59      0.01         0.01
  261                         0.55      0.55      0.75      0.01         0.01
  512                         0.24      0.24      4.63      0.01         0.01
  393                         0.01      0.01      4.63      0.01         0.01
  32                          1.75      1.75      1.88      0.04         0.01
  332                         1.30      1.30      1.40      0.01         0.01
  71                          2.03      2.03      2.04      0.02         0.04
  227                         1.56      1.56      1.74      0.01         0.01
  511                         0.24      0.24      4.43      0.01         0.01
  501                         0.24      0.24      4.42      0.01         0.01
  329                         1.23      1.23      1.27      0.01         0.01
  309                         1.55      1.55      1.57      0.09         0.08
  262                         0.56      0.56      0.76      0.01         0.01
  510                         0.24      0.24      4.61      0.01         0.01
  31                          1.69      1.69      1.75      0.01         0.01
  331                         1.15      1.15      1.30      0.01         0.01
  479                         0.01      0.01      4.29      0.01         0.01
  70                          2.00      2.00      2.03      0.06         0.05
  390                         0.01      0.01      4.25      0.01         0.01
  273                         0.01      0.01      1.27      0.01         0.01
  509                         0.24      0.24      4.44      0.01         0.01
  500                         0.27      0.27      4.42      0.01         0.01
  299                         1.20      1.20      1.23      0.01         0.01
  508                         0.21      0.21      4.38      0.01         0.01
  308                         1.54      1.54      1.55      0.07         0.03
  263                         0.59      0.59      0.78      0.01         0.01
  391                         0.01      0.01      4.59      0.01         0.01
  30                          1.64      1.64      1.69      0.01         0.01
  330                         1.01      1.01      1.15      0.01         0.01
  29                          1.94      1.94      2.00      0.06         0.05
  495                         0.27      0.27      4.45      0.01         0.01
  486                         0.28      0.28      4.42      0.01         0.01
  298                         1.19      1.37      1.20      0.32         0.08
  307                         1.52      1.52      1.54      0.06         0.02
  264                         0.63      0.73      0.80      0.19         0.01
  300                         1.20      1.20      1.64      0.01         0.01
  496                         0.89      0.89      1.01      0.01         0.01
  372                         0.27      0.27      4.37      0.01         0.01
  303                         1.89      1.89      1.94      0.01         0.02
  497                         0.30      0.30      4.53      0.01         0.01
  487                         0.29      0.29      4.50      0.01         0.01
  297                         1.31      1.35      1.37      0.35         0.28
  282                         1.49      1.49      1.52      0.01         0.01
  265                         0.69      0.99      0.78      0.56         0.24
  301                         1.07      1.07      1.20      0.02         0.01
  302                         0.99      1.21      1.02      0.82         0.52
  304                         1.84      1.84      1.89      0.02         0.03
  272                         0.62      0.62      1.33      0.01         0.01
  498                         0.71      0.71      4.70      0.01         0.01
  488                         0.31      0.31      4.60      0.01         0.01
  283                         1.46      1.46      1.49      0.01         0.01
  281                         1.45      1.45      1.48      0.09         0.05
  499                         0.95      0.95      1.07      0.01         0.01
  296                         1.04      1.18      1.16      0.23         0.04
  305                         1.78      1.78      1.84      0.01         0.01
  113                         1.41      1.42      1.45      0.13         0.07
  285                         1.43      1.43      1.46      0.01         0.01
  293                         1.77      1.78      1.78      0.42         0.31
  294                         1.08      1.08      1.17      0.03         0.01
  494                         0.59      0.59      4.58      0.01         0.01
  489                         0.36      0.36      4.48      0.01         0.01
  101                         1.39      1.39      1.42      0.18         0.10
  286                         1.34      1.34      1.43      0.01         0.01
  280                         0.94      0.94      1.08      0.01         0.01
  493                         0.45      0.45      4.40      0.01         0.01
  287                         0.87      0.87      1.07      0.02         0.01
  288                         1.05      1.28      1.22      0.35         0.10
  292                         1.73      1.75      1.78      0.23         0.12
  90                          1.35      1.40      1.39      0.20         0.11
  485                         0.35      0.35      4.40      0.01         0.01
  484                         0.39      0.39      4.40      0.01         0.01
  124                         0.72      0.77      0.81      0.06         0.01
  490                         0.41      0.41      4.35      0.01         0.01
  278                         1.26      1.26      1.34      0.01         0.01
  491                         0.79      0.79      0.87      0.01         0.01
  290                         1.69      1.69      1.75      0.01         0.02
  271                         0.85      0.85      1.15      0.01         0.01
  289                         1.48      1.61      1.52      0.32         0.11
  492                         1.07      1.07      1.28      0.01         0.01
  440                         0.77      0.77      0.94      0.01         0.01
  79                          1.28      1.28      1.40      0.01         0.01
  268                         1.22      1.22      1.26      0.01         0.01
  135                         0.83      0.83      1.02      0.01         0.01
  224                         1.57      1.61      1.61      0.35         0.24
  317                         1.24      1.24      1.35      0.02         0.01
  291                         1.63      1.63      1.69      0.01         0.01
  68                          1.23      1.23      1.28      0.01         0.01
  410                         0.69      0.69      0.83      0.01         0.01
  257                         1.19      1.35      1.22      0.38         0.16
  146                         0.73      0.73      0.91      0.01         0.01
  482                         0.92      0.92      4.57      0.01         0.01
  212                         1.60      1.62      1.61      0.47         0.40
  190                         1.27      1.27      1.43      0.07         0.04
  328                         1.59      1.59      1.63      0.01         0.01
  519                         0.80      0.80      4.44      0.01         0.01
  477                         0.85      0.85      0.96      0.01         0.01
  306                         1.15      1.15      1.24      0.01         0.01
  447                         0.73      0.73      0.96      0.04         0.01
  57                          1.18      1.18      1.23      0.06         0.06
  246                         1.31      1.31      1.35      0.24         0.24
  157                         0.94      0.94      1.11      0.01         0.01
  24                          1.15      1.24      1.27      0.68         0.55
  201                         1.46      1.46      1.62      0.21         0.22
  339                         1.56      1.56      1.59      0.01         0.01
  295                         1.11      1.11      1.15      0.05         0.01
  2                           0.91      0.91      1.03      0.07         0.01
  46                          1.10      1.10      1.18      0.05         0.06
  383                         0.80      0.80      0.94      0.01         0.01
  235                         1.29      1.37      1.31      0.85         0.70
  168                         0.99      1.02      1.09      0.21         0.15
  13                          1.38      1.38      1.46      0.15         0.17
  112                         1.50      1.60      1.56      0.28         0.15
  266                         0.90      0.90      1.04      0.01         0.01
  284                         1.08      1.08      1.11      0.08         0.01
  454                         0.82      0.82      0.99      0.01         0.01
  35                          0.97      0.97      1.10      0.09         0.05
  179                         1.19      1.19      1.37      0.12         0.12
  367                         1.33      1.33      1.38      0.01         0.01
  350                         1.33      1.33      1.38      0.01         0.01
  483                         0.84      0.84      4.48      0.01         0.01
  233                         1.27      1.27      1.60      0.01         0.02
  232                         0.95      0.95      1.10      0.06         0.02
  267                         0.91      1.00      1.04      0.16         0.02
  223                         1.06      1.27      1.09      0.49         0.20
  369                         0.82      0.82      0.97      0.01         0.01
  373                         1.12      1.12      1.19      0.01         0.01
  270                         0.97      0.98      1.27      0.01         0.01
  269                         1.09      1.09      1.27      0.22         0.23
  

  Analysis begun on:  Wed Dec 22 20:06:20 2021
  Analysis ended on:  Wed Dec 22 20:06:21 2021
  Total elapsed time: 00:00:01