
  EPA STORM WATER MANAGEMENT MODEL - VERSION 5.1 (Build 5.3.0.dev0)
  --------------------------------------------------------------

  
  *********************************************************
  NOTE: The summary statistics displayed in this report are
  based on results found at every computational time step,  
  not just on results from each reporting time step.
  *********************************************************
  
  ****************
  Analysis Options
  ****************
  Flow Units ............... CMS
  Process Models:
    Rainfall/Runoff ........ YES
    RDII ................... NO
    Snowmelt ............... NO
    Groundwater ............ NO
    Flow Routing ........... YES
    Ponding Allowed ........ YES
    Water Quality .......... NO
  Infiltration Method ...... HORTON
  Flow Routing Method ...... DYNWAVE
  Surcharge Method ......... EXTRAN
  Starting Date ............ 12/15/2017 00:00:00
  Ending Date .............. 12/15/2017 06:00:00
  Antecedent Dry Days ...... 0.0
  Report Time Step ......... 00:01:00
  Wet Time Step ............ 00:01:00
  Dry Time Step ............ 06:00:00
  Routing Time Step ........ 30.00 sec
  Variable Time Step ....... YES
  Maximum Trials ........... 8
  Number of Threads ........ 1
  Head Tolerance ........... 0.001500 m
  
  
  **************************        Volume         Depth
  Runoff Quantity Continuity     hectare-m            mm
  **************************     ---------       -------
  Total Precipitation ......        11.436        23.286
  Evaporation Loss .........         0.000         0.000
  Infiltration Loss ........         1.331         2.710
  Surface Runoff ...........         8.976        18.277
  Final Storage ............         1.130         2.300
  Continuity Error (%) .....        -0.011
  
  
  **************************        Volume        Volume
  Flow Routing Continuity        hectare-m      10^6 ltr
  **************************     ---------     ---------
  Dry Weather Inflow .......         0.000         0.000
  Wet Weather Inflow .......         8.979        89.790
  Groundwater Inflow .......         0.000         0.000
  RDII Inflow ..............         0.000         0.000
  External Inflow ..........         0.000         0.000
  External Outflow .........         8.926        89.260
  Flooding Loss ............         0.000         0.000
  Evaporation Loss .........         0.000         0.000
  Exfiltration Loss ........         0.000         0.000
  Initial Stored Volume ....         0.000         0.000
  Final Stored Volume ......         0.047         0.473
  Continuity Error (%) .....         0.064
  
  
  *************************
  Highest Continuity Errors
  *************************
  Node 302 (5.77%)
  Node 227 (5.36%)
  Node 272 (-4.14%)
  Node 50 (3.15%)
  Node 81 (3.08%)
  
  
  ***************************
  Time-Step Critical Elements
  ***************************
  Link 26 (41.67%)
  Link 163 (9.87%)
  Link 223 (9.59%)
  Link 136 (3.18%)
  Link 342 (2.37%)
  
  
  ********************************
  Highest Flow Instability Indexes
  ********************************
  Link 499 (25)
  Link 496 (24)
  Link 364 (19)
  Link 491 (18)
  Link 343 (17)
  
  
  *************************
  Routing Time Step Summary
  *************************
  Minimum Time Step           :     0.50 sec
  Average Time Step           :    10.26 sec
  Maximum Time Step           :    30.00 sec
  Percent in Steady State     :     0.60
  Average Iterations per Step :     4.65
  Percent Not Converging      :    33.08
  
  
  ***************************
  Subcatchment Runoff Summary
  ***************************
  
  ------------------------------------------------------------------------------------------------------------------------------
                            Total      Total      Total      Total     Imperv       Perv      Total       Total     Peak  Runoff
                           Precip      Runon       Evap      Infil     Runoff     Runoff     Runoff      Runoff   Runoff   Coeff
  Subcatchment                 mm         mm         mm         mm         mm         mm         mm    10^6 ltr      CMS
  ------------------------------------------------------------------------------------------------------------------------------
  532                       23.29       0.00       0.00       2.46      17.57       1.12      18.69        0.39     0.16   0.803
  533                       23.29       0.00       0.00       2.46      17.57       1.12      18.69        0.27     0.11   0.803
  534                       23.29       0.00       0.00       2.46      17.57       1.12      18.69        0.31     0.12   0.803
  535                       23.29       0.00       0.00       2.46      17.57       1.12      18.69        0.37     0.15   0.803
  536                       23.29       0.00       0.00       2.46      17.57       1.12      18.69        0.35     0.14   0.803
  537                       23.29       0.00       0.00       2.46      17.57       1.12      18.69        0.34     0.14   0.803
  538                       23.29       0.00       0.00       2.46      17.57       1.12      18.69        0.33     0.14   0.803
  539                       23.29       0.00       0.00       2.46      17.57       1.12      18.69        0.32     0.13   0.803
  540                       23.29       0.00       0.00       2.46      17.57       1.12      18.69        0.60     0.24   0.803
  541                       23.29       0.00       0.00       2.46      17.57       1.12      18.69        0.58     0.24   0.803
  542                       23.29       0.00       0.00       2.46      17.57       1.12      18.69        0.28     0.12   0.803
  543                       23.29       0.00       0.00       2.46      17.57       1.12      18.69        0.47     0.19   0.803
  544                       23.29       0.00       0.00       2.46      17.57       1.12      18.69        1.08     0.44   0.803
  545                       23.29       0.00       0.00       2.46      17.57       1.12      18.69        0.44     0.18   0.803
  546                       23.29       0.00       0.00       2.46      17.57       1.12      18.69        0.43     0.18   0.803
  547                       23.29       0.00       0.00       2.46      17.57       1.12      18.69        0.38     0.15   0.803
  548                       23.29       0.00       0.00       2.46      17.57       1.12      18.69        0.31     0.12   0.803
  549                       23.29       0.00       0.00       2.46      17.57       1.12      18.69        0.43     0.18   0.803
  550                       23.29       0.00       0.00       2.46      17.57       1.12      18.69        0.44     0.18   0.803
  551                       23.29       0.00       0.00       2.46      17.57       1.12      18.69        0.21     0.09   0.803
  552                       23.29       0.00       0.00       2.46      17.57       1.12      18.69        0.22     0.09   0.803
  553                       23.29       0.00       0.00       2.46      17.57       1.12      18.69        0.21     0.09   0.803
  554                       23.29       0.00       0.00       2.46      17.57       1.12      18.69        0.21     0.09   0.803
  555                       23.29       0.00       0.00       2.46      17.57       1.12      18.69        0.21     0.09   0.803
  556                       23.29       0.00       0.00       2.46      17.57       1.12      18.69        0.21     0.09   0.803
  557                       23.29       0.00       0.00       2.46      17.57       1.12      18.69        0.21     0.09   0.803
  558                       23.29       0.00       0.00       2.46      17.57       1.12      18.69        0.43     0.17   0.803
  559                       23.29       0.00       0.00       2.46      17.57       1.12      18.69        0.22     0.09   0.803
  560                       23.29       0.00       0.00       2.46      17.57       1.12      18.69        0.41     0.17   0.803
  561                       23.29       0.00       0.00       2.46      17.57       1.12      18.69        0.43     0.18   0.803
  562                       23.29       0.00       0.00       2.46      17.57       1.12      18.69        0.37     0.15   0.803
  563                       23.29       0.00       0.00       2.46      17.57       1.12      18.69        0.67     0.27   0.803
  564                       23.29       0.00       0.00       2.46      17.57       1.12      18.69        0.63     0.26   0.803
  565                       23.29       0.00       0.00       2.46      17.57       1.12      18.69        0.60     0.25   0.803
  566                       23.29       0.00       0.00       2.46      17.57       1.12      18.69        0.53     0.22   0.803
  567                       23.29       0.00       0.00       2.46      17.57       1.12      18.69        0.48     0.19   0.803
  568                       23.29       0.00       0.00       2.46      17.57       1.12      18.69        0.43     0.18   0.803
  569                       23.29       0.00       0.00       2.46      17.57       1.12      18.69        0.44     0.18   0.803
  570                       23.29       0.00       0.00       2.46      17.57       1.12      18.69        0.38     0.15   0.803
  571                       23.29       0.00       0.00       2.46      17.57       1.12      18.69        0.66     0.27   0.803
  572                       23.29       0.00       0.00       2.46      17.57       1.12      18.69        0.31     0.12   0.803
  573                       23.29       0.00       0.00       2.46      17.57       1.12      18.69        0.30     0.12   0.803
  574                       23.29       0.00       0.00       2.46      17.57       1.12      18.69        0.29     0.12   0.803
  575                       23.29       0.00       0.00       2.46      17.57       1.12      18.69        0.27     0.11   0.803
  576                       23.29       0.00       0.00       2.46      17.57       1.12      18.69        0.26     0.11   0.803
  577                       23.29       0.00       0.00       2.46      17.57       1.12      18.69        0.24     0.10   0.803
  578                       23.29       0.00       0.00       2.46      17.57       1.12      18.69        0.24     0.10   0.803
  579                       23.29       0.00       0.00       2.46      17.57       1.12      18.69        0.45     0.18   0.803
  580                       23.29       0.00       0.00       2.46      17.57       1.12      18.69        0.21     0.08   0.803
  581                       23.29       0.00       0.00       2.46      17.57       1.12      18.69        0.37     0.15   0.803
  582                       23.29       0.00       0.00       2.46      17.57       1.12      18.69        0.33     0.14   0.803
  583                       23.29       0.00       0.00       2.46      17.57       1.12      18.69        0.57     0.23   0.803
  584                       23.29       0.00       0.00       2.46      17.57       1.12      18.69        0.56     0.23   0.803
  585                       23.29       0.00       0.00       2.46      17.57       1.12      18.69        0.49     0.20   0.803
  586                       23.29       0.00       0.00       2.46      17.57       1.12      18.69        0.36     0.15   0.803
  587                       23.29       0.00       0.00       2.46      17.57       1.12      18.69        0.35     0.14   0.803
  588                       23.29       0.00       0.00       2.46      17.57       1.12      18.69        0.36     0.14   0.803
  589                       23.29       0.00       0.00       2.46      17.57       1.12      18.69        0.35     0.14   0.803
  590                       23.29       0.00       0.00       2.46      17.57       1.12      18.69        0.35     0.14   0.803
  591                       23.29       0.00       0.00       2.46      17.57       1.12      18.69        0.36     0.15   0.803
  592                       23.29       0.00       0.00       2.46      17.57       1.12      18.69        0.36     0.15   0.803
  593                       23.29       0.00       0.00       2.46      17.57       1.12      18.69        0.37     0.15   0.803
  594                       23.29       0.00       0.00       2.46      17.57       1.12      18.69        0.36     0.15   0.803
  595                       23.29       0.00       0.00       2.46      17.57       1.12      18.69        0.37     0.15   0.803
  596                       23.29       0.00       0.00       2.46      17.57       1.12      18.69        0.37     0.15   0.803
  597                       23.29       0.00       0.00       2.46      17.57       1.12      18.69        0.37     0.15   0.803
  598                       23.29       0.00       0.00       2.46      17.57       1.12      18.69        0.38     0.16   0.803
  599                       23.29       0.00       0.00       2.46      17.57       1.12      18.69        0.39     0.16   0.803
  600                       23.29       0.00       0.00       2.46      17.57       1.12      18.69        0.38     0.16   0.803
  601                       23.29       0.00       0.00       2.46      17.57       1.12      18.69        0.40     0.16   0.803
  602                       23.29       0.00       0.00       2.46      17.57       1.12      18.69        0.39     0.16   0.803
  603                       23.29       0.00       0.00       2.46      17.57       1.12      18.69        0.40     0.16   0.803
  604                       23.29       0.00       0.00       2.46      17.57       1.12      18.69        0.41     0.17   0.803
  605                       23.29       0.00       0.00       2.46      17.57       1.12      18.69        0.38     0.15   0.803
  606                       23.29       0.00       0.00       2.46      17.57       1.12      18.69        0.39     0.16   0.803
  607                       23.29       0.00       0.00       2.46      17.57       1.12      18.69        0.40     0.16   0.803
  608                       23.29       0.00       0.00       2.46      17.57       1.12      18.69        0.51     0.21   0.803
  609                       23.29       0.00       0.00       2.46      17.57       1.12      18.69        0.52     0.21   0.803
  610                       23.29       0.00       0.00       2.46      17.57       1.12      18.69        0.40     0.16   0.803
  611                       23.29       0.00       0.00       2.46      17.57       1.12      18.69        0.40     0.16   0.803
  612                       23.29       0.00       0.00       2.46      17.57       1.12      18.69        0.43     0.18   0.803
  613                       23.29       0.00       0.00       2.46      17.57       1.12      18.69        0.34     0.14   0.803
  614                       23.29       0.00       0.00       2.46      17.57       1.12      18.69        0.54     0.22   0.803
  615                       23.29       0.00       0.00       2.46      17.57       1.12      18.69        0.67     0.27   0.803
  616                       23.29       0.00       0.00       2.46      17.57       1.12      18.69        0.34     0.14   0.803
  617                       23.29       0.00       0.00       2.46      17.57       1.12      18.69        0.33     0.14   0.803
  618                       23.29       0.00       0.00       2.46      17.57       1.12      18.69        0.34     0.14   0.803
  619                       23.29       0.00       0.00       2.46      17.57       1.12      18.69        0.34     0.14   0.803
  620                       23.29       0.00       0.00       2.46      17.57       1.12      18.69        0.33     0.14   0.803
  621                       23.29       0.00       0.00       2.46      17.57       1.12      18.69        0.34     0.14   0.803
  622                       23.29       0.00       0.00       2.46      17.57       1.12      18.69        0.33     0.14   0.803
  623                       23.29       0.00       0.00       2.46      17.57       1.12      18.69        0.34     0.14   0.803
  624                       23.29       0.00       0.00       2.46      17.57       1.12      18.69        0.34     0.14   0.803
  625                       23.29       0.00       0.00       2.46      17.57       1.12      18.69        0.34     0.14   0.803
  626                       23.29       0.00       0.00       2.46      17.57       1.12      18.69        0.34     0.14   0.803
  627                       23.29       0.00       0.00       2.46      17.57       1.12      18.69        0.34     0.14   0.803
  628                       23.29       0.00       0.00       2.46      17.57       1.12      18.69        0.34     0.14   0.803
  629                       23.29       0.00       0.00       2.46      17.57       1.12      18.69        0.35     0.14   0.803
  630                       23.29       0.00       0.00       2.46      17.57       1.12      18.69        0.33     0.13   0.803
  631                       23.29       0.00       0.00       2.46      17.57       1.12      18.69        0.34     0.14   0.803
  632                       23.29       0.00       0.00       2.46      17.57       1.12      18.69        0.34     0.14   0.803
  633                       23.29       0.00       0.00       2.46      17.57       1.12      18.69        0.36     0.15   0.803
  634                       23.29       0.00       0.00       2.46      17.57       1.12      18.69        0.33     0.14   0.803
  635                       23.29       0.00       0.00       2.46      17.57       1.12      18.69        0.33     0.14   0.803
  636                       23.29       0.00       0.00       2.46      17.57       1.12      18.69        0.32     0.13   0.803
  637                       23.29       0.00       0.00       2.46      17.57       1.12      18.69        0.36     0.15   0.803
  638                       23.29       0.00       0.00       2.46      17.57       1.12      18.69        0.54     0.22   0.803
  639                       23.29       0.00       0.00       2.46      17.57       1.12      18.69        0.42     0.17   0.803
  640                       23.29       0.00       0.00       2.46      17.57       1.12      18.69        0.34     0.14   0.803
  641                       23.29       0.00       0.00       2.46      17.57       1.12      18.69        0.59     0.24   0.803
  642                       23.29       0.00       0.00       2.46      17.57       1.12      18.69        0.33     0.13   0.803
  643                       23.29       0.00       0.00       2.46      17.57       1.12      18.69        0.33     0.14   0.803
  644                       23.29       0.00       0.00       2.46      17.57       1.12      18.69        0.33     0.14   0.803
  645                       23.29       0.00       0.00       2.46      17.57       1.12      18.69        0.33     0.13   0.803
  646                       23.29       0.00       0.00       2.46      17.57       1.12      18.69        0.33     0.13   0.803
  647                       23.29       0.00       0.00       2.46      17.57       1.12      18.69        0.33     0.13   0.803
  648                       23.29       0.00       0.00       2.46      17.57       1.12      18.69        0.33     0.13   0.803
  649                       23.29       0.00       0.00       2.46      17.57       1.12      18.69        0.33     0.13   0.803
  650                       23.29       0.00       0.00       2.46      17.57       1.12      18.69        0.32     0.13   0.803
  651                       23.29       0.00       0.00       2.46      17.57       1.12      18.69        0.33     0.13   0.803
  652                       23.29       0.00       0.00       2.46      17.57       1.12      18.69        0.33     0.13   0.803
  653                       23.29       0.00       0.00       2.46      17.57       1.12      18.69        0.33     0.13   0.803
  654                       23.29       0.00       0.00       2.46      17.57       1.12      18.69        0.33     0.13   0.803
  655                       23.29       0.00       0.00       2.46      17.57       1.12      18.69        0.33     0.13   0.803
  656                       23.29       0.00       0.00       2.46      17.57       1.12      18.69        0.33     0.13   0.803
  657                       23.29       0.00       0.00       2.46      17.57       1.12      18.69        0.33     0.13   0.803
  658                       23.29       0.00       0.00       2.46      17.57       1.12      18.69        0.33     0.13   0.803
  659                       23.29       0.00       0.00       2.46      17.57       1.12      18.69        0.33     0.13   0.803
  660                       23.29       0.00       0.00       2.46      17.57       1.12      18.69        0.33     0.13   0.803
  661                       23.29       0.00       0.00       2.46      17.57       1.12      18.69        0.33     0.14   0.803
  662                       23.29       0.00       0.00       2.46      17.57       1.12      18.69        0.50     0.20   0.803
  663                       23.29       0.00       0.00       2.46      17.57       1.12      18.69        0.33     0.14   0.803
  664                       23.29       0.00       0.00       2.46      17.57       1.12      18.69        1.57     0.64   0.803
  665                       23.29       0.00       0.00       2.46      17.57       1.12      18.69        1.42     0.58   0.803
  666                       23.29       0.00       0.00       2.46      17.57       1.12      18.69        1.12     0.46   0.803
  667                       23.29       0.00       0.00       2.46      17.57       1.12      18.69        0.60     0.24   0.803
  668                       23.29       0.00       0.00       2.46      17.57       1.12      18.69        0.49     0.20   0.803
  669                       23.29       0.00       0.00       2.46      17.57       1.12      18.69        0.50     0.20   0.803
  670                       23.29       0.00       0.00       2.46      17.57       1.12      18.69        0.49     0.20   0.803
  671                       23.29       0.00       0.00       2.46      17.57       1.12      18.69        0.49     0.20   0.803
  672                       23.29       0.00       0.00       2.46      17.57       1.12      18.69        0.75     0.30   0.803
  673                       23.29       0.00       0.00       2.46      17.57       1.12      18.69        0.64     0.26   0.803
  674                       23.29       0.00       0.00       2.46      17.57       1.12      18.69        0.93     0.38   0.803
  675                       23.29       0.00       0.00       2.46      17.57       1.12      18.69        0.88     0.36   0.803
  676                       23.29       0.00       0.00       2.46      17.57       1.12      18.69        0.85     0.35   0.803
  677                       23.29       0.00       0.00       2.46      17.57       1.12      18.69        0.75     0.30   0.803
  678                       23.29       0.00       0.00       2.46      17.57       1.12      18.69        0.77     0.31   0.803
  679                       23.29       0.00       0.00       2.46      17.57       1.12      18.69        0.66     0.27   0.803
  680                       23.29       0.00       0.00       2.46      17.57       1.12      18.69        0.28     0.11   0.803
  681                       23.29       0.00       0.00       2.46      17.57       1.12      18.69        0.50     0.21   0.803
  682                       23.29       0.00       0.00       2.46      17.57       1.12      18.69        0.41     0.17   0.803
  683                       23.29       0.00       0.00       2.46      17.57       1.12      18.69        0.41     0.17   0.803
  684                       23.29       0.00       0.00       2.46      17.57       1.12      18.69        0.66     0.27   0.803
  685                       23.29       0.00       0.00       2.46      17.57       1.12      18.69        0.63     0.26   0.803
  686                       23.29       0.00       0.00       2.46      17.57       1.12      18.69        0.80     0.32   0.803
  687                       23.29       0.00       0.00       9.86       4.43       2.50       6.93        1.25     0.44   0.297
  688                       23.29       0.00       0.00       2.46      17.57       1.12      18.69        0.37     0.15   0.803
  689                       23.29       0.00       0.00       2.46      17.57       1.12      18.69        0.35     0.14   0.803
  690                       23.29       0.00       0.00       2.46      17.57       1.12      18.69        0.87     0.35   0.803
  691                       23.29       0.00       0.00       2.46      17.57       1.12      18.69        1.11     0.45   0.803
  692                       23.29       0.00       0.00       2.46      17.57       1.12      18.69        0.62     0.25   0.803
  693                       23.29       0.00       0.00       2.46      17.57       1.12      18.69        0.63     0.26   0.803
  694                       23.29       0.00       0.00       2.46      17.57       1.12      18.69        1.14     0.46   0.803
  695                       23.29       0.00       0.00       2.46      17.57       1.12      18.69        0.25     0.10   0.803
  696                       23.29       0.00       0.00       2.46      17.57       1.12      18.69        0.34     0.14   0.803
  697                       23.29       0.00       0.00       2.46      17.57       1.12      18.69        0.40     0.16   0.803
  698                       23.29       0.00       0.00       2.46      17.57       1.12      18.69        0.69     0.28   0.803
  699                       23.29       0.00       0.00       2.46      17.57       1.12      18.69        0.54     0.22   0.803
  700                       23.29       0.00       0.00       2.46      17.57       1.12      18.69        0.68     0.28   0.803
  701                       23.29       0.00       0.00       2.46      17.57       1.12      18.69        0.51     0.21   0.803
  702                       23.29       0.00       0.00       2.46      17.57       1.12      18.69        0.31     0.13   0.803
  703                       23.29       0.00       0.00       2.46      17.57       1.12      18.69        0.49     0.20   0.803
  704                       23.29       0.00       0.00       2.46      17.57       1.12      18.69        0.50     0.21   0.803
  705                       23.29       0.00       0.00       2.46      17.57       1.12      18.69        0.27     0.11   0.803
  706                       23.29       0.00       0.00       2.46      17.57       1.12      18.69        0.22     0.09   0.803
  707                       23.29       0.00       0.00       2.46      17.57       1.12      18.69        0.44     0.18   0.803
  708                       23.29       0.00       0.00       2.46      17.57       1.12      18.69        0.61     0.25   0.803
  709                       23.29       0.00       0.00       2.46      17.57       1.12      18.69        0.29     0.12   0.803
  710                       23.29       0.00       0.00       2.46      17.57       1.12      18.69        0.19     0.08   0.803
  711                       23.29       0.00       0.00       2.46      17.57       1.12      18.69        0.16     0.06   0.803
  712                       23.29       0.00       0.00       2.46      17.57       1.12      18.69        0.46     0.19   0.803
  713                       23.29       0.00       0.00       2.46      17.57       1.12      18.69        0.19     0.08   0.803
  714                       23.29       0.00       0.00       2.46      17.57       1.12      18.69        0.19     0.08   0.803
  715                       23.29       0.00       0.00       2.46      17.57       1.12      18.69        0.19     0.08   0.803
  716                       23.29       0.00       0.00       2.46      17.57       1.12      18.69        0.19     0.08   0.803
  717                       23.29       0.00       0.00       2.46      17.57       1.12      18.69        0.19     0.08   0.803
  718                       23.29       0.00       0.00       2.46      17.57       1.12      18.69        0.28     0.11   0.803
  719                       23.29       0.00       0.00       2.46      17.57       1.12      18.69        0.28     0.11   0.803
  720                       23.29       0.00       0.00       2.46      17.57       1.12      18.69        0.28     0.11   0.803
  721                       23.29       0.00       0.00       2.46      17.57       1.12      18.69        0.28     0.11   0.803
  722                       23.29       0.00       0.00       2.46      17.57       1.12      18.69        0.28     0.11   0.803
  723                       23.29       0.00       0.00       2.46      17.57       1.12      18.69        0.28     0.11   0.803
  724                       23.29       0.00       0.00       2.46      17.57       1.12      18.69        0.28     0.11   0.803
  725                       23.29       0.00       0.00       2.46      17.57       1.12      18.69        0.28     0.11   0.803
  726                       23.29       0.00       0.00       2.46      17.57       1.12      18.69        0.28     0.11   0.803
  727                       23.29       0.00       0.00       2.46      17.57       1.12      18.69        0.28     0.11   0.803
  728                       23.29       0.00       0.00       2.46      17.57       1.12      18.69        0.28     0.11   0.803
  729                       23.29       0.00       0.00       2.46      17.57       1.12      18.69        0.28     0.11   0.803
  730                       23.29       0.00       0.00       2.46      17.57       1.12      18.69        0.28     0.11   0.803
  731                       23.29       0.00       0.00       2.46      17.57       1.12      18.69        0.28     0.11   0.803
  732                       23.29       0.00       0.00       2.46      17.57       1.12      18.69        0.28     0.11   0.803
  733                       23.29       0.00       0.00       2.46      17.57       1.12      18.69        0.28     0.11   0.803
  734                       23.29       0.00       0.00       2.46      17.57       1.12      18.69        0.28     0.11   0.803
  735                       23.29       0.00       0.00       2.46      17.57       1.12      18.69        0.28     0.11   0.803
  736                       23.29       0.00       0.00       2.46      17.57       1.12      18.69        0.28     0.11   0.803
  737                       23.29       0.00       0.00       2.46      17.57       1.12      18.69        0.28     0.11   0.803
  738                       23.29       0.00       0.00       2.46      17.57       1.12      18.69        0.28     0.11   0.803
  739                       23.29       0.00       0.00       2.46      17.57       1.12      18.69        0.28     0.11   0.803
  740                       23.29       0.00       0.00       2.46      17.57       1.12      18.69        0.28     0.11   0.803
  741                       23.29       0.00       0.00       2.46      17.57       1.12      18.69        0.28     0.11   0.803
  742                       23.29       0.00       0.00       2.46      17.57       1.12      18.69        0.28     0.11   0.803
  743                       23.29       0.00       0.00       2.46      17.57       1.12      18.69        0.28     0.11   0.803
  744                       23.29       0.00       0.00       2.46      17.57       1.12      18.69        0.19     0.08   0.803
  745                       23.29       0.00       0.00       0.00      17.57       2.81      20.37        0.31     0.12   0.875
  746                       23.29       0.00       0.00       0.00      17.57       2.81      20.37        0.31     0.12   0.875
  747                       23.29       0.00       0.00       0.00      17.57       2.81      20.37        0.41     0.16   0.875
  
  
  ******************
  Node Depth Summary
  ******************
  
  ---------------------------------------------------------------------------------
                                 Average  Maximum  Maximum  Time of Max    Reported
                                   Depth    Depth      HGL   Occurrence   Max Depth
  Node                 Type       Meters   Meters   Meters  days hr:min      Meters
  ---------------------------------------------------------------------------------
  1                    JUNCTION     0.50     1.41    18.26     0  01:52        1.41
  2                    JUNCTION     0.89     2.92    18.15     0  01:59        2.92
  3                    JUNCTION     0.44     1.65    18.15     0  02:01        1.65
  4                    JUNCTION     0.51     1.94    18.11     0  02:04        1.94
  5                    JUNCTION     0.52     1.99    18.10     0  02:04        1.99
  6                    JUNCTION     0.63     2.30    18.09     0  02:01        2.30
  7                    JUNCTION     0.71     2.54    18.07     0  01:59        2.53
  8                    JUNCTION     1.09     3.48    18.07     0  01:59        3.48
  9                    JUNCTION     1.06     3.40    18.08     0  01:58        3.40
  10                   JUNCTION     0.37     1.35    18.20     0  02:00        1.35
  11                   JUNCTION     0.50     1.60    18.22     0  01:58        1.60
  12                   JUNCTION     0.41     1.41    18.26     0  01:49        1.41
  13                   JUNCTION     0.40     1.57    18.14     0  02:01        1.57
  14                   JUNCTION     0.44     1.73    18.09     0  01:59        1.73
  15                   JUNCTION     0.53     2.02    18.05     0  01:57        2.02
  16                   JUNCTION     0.56     2.14    18.03     0  01:55        2.14
  17                   JUNCTION     0.60     2.29    18.02     0  01:54        2.29
  18                   JUNCTION     0.69     2.56    18.01     0  01:52        2.56
  19                   JUNCTION     0.74     2.84    17.98     0  01:46        2.84
  20                   JUNCTION     0.80     3.07    17.97     0  01:46        3.06
  21                   JUNCTION     0.21     1.16    18.01     0  01:48        1.16
  22                   JUNCTION     0.20     1.40    17.96     0  01:48        1.39
  23                   JUNCTION     0.17     1.15    18.00     0  01:49        1.15
  24                   JUNCTION     0.24     1.44    18.00     0  01:55        1.44
  25                   JUNCTION     0.28     1.24    18.09     0  01:59        1.24
  26                   JUNCTION     0.46     1.64    18.15     0  01:53        1.64
  27                   JUNCTION     0.51     1.80    18.18     0  01:57        1.80
  28                   JUNCTION     0.58     1.86    18.19     0  02:04        1.86
  29                   JUNCTION     0.73     2.30    18.14     0  01:59        2.30
  30                   JUNCTION     0.84     2.65    18.13     0  01:59        2.65
  31                   JUNCTION     0.58     2.01    18.14     0  01:52        2.01
  32                   JUNCTION     0.58     2.25    18.04     0  01:55        2.25
  33                   JUNCTION     0.62     2.42    18.01     0  01:53        2.42
  34                   JUNCTION     0.70     2.84    17.96     0  01:48        2.84
  35                   JUNCTION     0.74     2.97    17.95     0  01:47        2.96
  36                   JUNCTION     0.28     1.57    17.96     0  01:35        1.56
  37                   JUNCTION     0.85     3.20    17.96     0  01:46        3.20
  38                   JUNCTION     1.22     4.03    17.89     0  01:46        4.01
  39                   JUNCTION     1.06     3.74    17.91     0  01:46        3.74
  40                   JUNCTION     1.01     3.65    17.92     0  01:46        3.65
  41                   JUNCTION     0.82     3.20    17.94     0  01:47        3.20
  42                   JUNCTION     0.20     1.37    18.00     0  01:42        1.29
  43                   JUNCTION     0.53     1.79    18.14     0  01:50        1.79
  44                   JUNCTION     0.86     2.88    18.07     0  01:57        2.88
  45                   JUNCTION     1.38     4.05    18.04     0  01:57        4.05
  46                   JUNCTION     1.17     3.65    18.06     0  01:59        3.65
  47                   JUNCTION     1.47     4.22    18.00     0  01:57        4.22
  48                   JUNCTION     1.54     4.38    17.96     0  01:53        4.37
  49                   JUNCTION     0.32     1.80    18.00     0  01:36        1.73
  50                   JUNCTION     0.39     1.64    17.98     0  01:47        1.63
  51                   JUNCTION     0.50     1.85    18.01     0  01:49        1.85
  52                   JUNCTION     0.49     1.99    17.92     0  01:46        1.97
  53                   JUNCTION     0.64     2.59    17.89     0  01:46        2.57
  54                   JUNCTION     0.43     1.72    17.93     0  01:44        1.70
  55                   JUNCTION     0.24     1.30    17.92     0  01:46        1.29
  56                   JUNCTION     0.36     1.25    18.05     0  01:49        1.25
  57                   JUNCTION     1.82     4.91    17.85     0  01:50        4.91
  58                   JUNCTION     1.74     4.79    17.90     0  01:50        4.78
  59                   JUNCTION     1.66     4.64    17.93     0  01:50        4.63
  60                   JUNCTION     1.27     4.09    17.88     0  01:46        4.08
  61                   JUNCTION     1.29     4.13    17.85     0  01:46        4.11
  62                   JUNCTION     1.31     4.17    17.81     0  01:46        4.16
  63                   JUNCTION     1.50     4.49    17.76     0  01:46        4.48
  64                   JUNCTION     1.53     4.53    17.74     0  01:48        4.53
  65                   JUNCTION     1.58     4.61    17.70     0  01:47        4.61
  66                   JUNCTION     1.55     4.58    17.72     0  01:48        4.57
  67                   JUNCTION     1.61     4.65    17.68     0  01:48        4.65
  68                   JUNCTION     1.64     4.69    17.65     0  01:50        4.69
  69                   JUNCTION     1.66     4.72    17.62     0  01:48        4.72
  70                   JUNCTION     1.69     4.76    17.61     0  01:50        4.75
  71                   JUNCTION     1.71     4.79    17.57     0  01:50        4.78
  72                   JUNCTION     1.22     3.97    17.51     0  01:53        3.97
  73                   JUNCTION     1.03     3.60    17.61     0  01:53        3.60
  74                   JUNCTION     0.94     3.40    17.66     0  01:50        3.40
  75                   JUNCTION     0.90     3.30    17.70     0  01:50        3.30
  76                   JUNCTION     0.83     3.17    17.83     0  01:45        3.17
  77                   JUNCTION     0.80     3.05    17.83     0  01:46        3.04
  78                   JUNCTION     0.76     2.94    17.85     0  01:46        2.92
  79                   JUNCTION     0.71     2.83    17.86     0  01:46        2.80
  80                   JUNCTION     0.68     2.71    17.87     0  01:46        2.70
  81                   JUNCTION     0.22     1.38    18.00     0  01:45        1.28
  82                   JUNCTION     0.30     1.61    18.00     0  01:45        1.47
  83                   JUNCTION     0.43     1.81    17.97     0  01:45        1.72
  84                   JUNCTION     0.53     2.06    17.94     0  01:46        1.97
  85                   JUNCTION     0.58     2.25    17.93     0  01:46        2.13
  86                   JUNCTION     0.68     2.44    17.83     0  01:46        2.39
  87                   JUNCTION     0.72     2.60    17.70     0  01:49        2.60
  88                   JUNCTION     0.81     2.88    17.65     0  01:49        2.88
  89                   JUNCTION     0.28     1.20    17.65     0  01:50        1.20
  90                   JUNCTION     0.32     1.40    17.60     0  01:52        1.40
  91                   JUNCTION     0.34     1.47    17.57     0  01:53        1.47
  92                   JUNCTION     0.43     1.85    17.49     0  01:50        1.85
  93                   JUNCTION     1.41     4.29    17.49     0  01:53        4.28
  94                   JUNCTION     1.74     4.81    17.54     0  01:52        4.81
  95                   JUNCTION     0.31     1.43    17.48     0  01:50        1.42
  96                   JUNCTION     0.36     1.53    17.46     0  01:50        1.53
  97                   JUNCTION     0.15     0.82    17.32     0  01:50        0.81
  98                   JUNCTION     0.29     1.28    17.19     0  01:50        1.28
  99                   JUNCTION     0.19     0.98    17.23     0  01:50        0.98
  100                  JUNCTION     0.32     1.47    17.71     0  01:43        1.47
  101                  JUNCTION     0.23     1.50    18.00     0  01:34        1.40
  102                  JUNCTION     0.51     1.87    18.10     0  01:45        1.87
  103                  JUNCTION     0.46     1.77    18.14     0  01:46        1.77
  104                  JUNCTION     0.50     1.85    18.13     0  01:48        1.85
  105                  JUNCTION     0.42     1.64    18.14     0  01:49        1.64
  106                  JUNCTION     0.49     1.85    18.13     0  01:48        1.85
  107                  JUNCTION     0.38     1.62    18.12     0  01:57        1.62
  108                  JUNCTION     0.32     1.50    18.11     0  01:53        1.50
  109                  JUNCTION     0.51     1.95    18.13     0  01:42        1.95
  110                  JUNCTION     0.25     1.45    18.01     0  01:43        1.45
  111                  JUNCTION     0.56     2.21    18.01     0  01:41        2.21
  112                  JUNCTION     0.67     2.56    18.00     0  01:32        2.56
  113                  JUNCTION     0.58     2.17    17.99     0  01:33        2.13
  114                  JUNCTION     0.61     2.38    18.00     0  01:33        2.32
  115                  JUNCTION     0.53     2.11    18.00     0  01:24        2.01
  116                  JUNCTION     0.12     0.86    17.47     0  01:48        0.86
  117                  JUNCTION     0.39     1.75    17.50     0  01:49        1.75
  118                  JUNCTION     0.17     0.82    17.44     0  01:34        0.82
  119                  JUNCTION     0.34     1.55    17.09     0  01:53        1.55
  120                  JUNCTION     1.84     4.90    17.34     0  01:54        4.89
  121                  JUNCTION     1.84     4.91    17.38     0  01:53        4.90
  122                  JUNCTION     1.84     4.92    17.45     0  01:53        4.92
  123                  JUNCTION     1.43     4.31    17.47     0  01:52        4.31
  124                  JUNCTION     1.90     5.04    17.78     0  01:50        5.04
  125                  JUNCTION     0.67     2.22    17.88     0  01:45        2.22
  126                  JUNCTION     0.77     2.42    17.88     0  01:45        2.42
  127                  JUNCTION     0.83     2.53    17.88     0  01:45        2.52
  128                  JUNCTION     1.03     2.98    18.04     0  01:31        2.98
  129                  JUNCTION     1.10     3.14    18.00     0  01:24        3.14
  130                  JUNCTION     1.11     3.30    18.00     0  01:24        3.08
  131                  JUNCTION     1.10     3.30    17.86     0  01:29        3.16
  132                  JUNCTION     1.09     3.36    17.76     0  01:29        3.27
  133                  JUNCTION     1.21     3.63    17.61     0  01:50        3.62
  134                  JUNCTION     1.23     3.70    17.57     0  01:50        3.69
  135                  JUNCTION     1.24     3.75    17.52     0  01:50        3.75
  136                  JUNCTION     1.25     3.80    17.46     0  01:50        3.79
  137                  JUNCTION     1.26     3.84    17.40     0  01:50        3.84
  138                  JUNCTION     1.26     3.86    17.32     0  01:50        3.86
  139                  JUNCTION     1.25     3.85    17.21     0  01:53        3.85
  140                  JUNCTION     1.86     4.83    17.08     0  01:54        4.83
  141                  JUNCTION     1.83     4.76    16.95     0  01:54        4.76
  142                  JUNCTION     0.46     1.59    17.48     0  01:35        1.59
  143                  JUNCTION     0.52     2.28    17.40     0  01:48        2.28
  144                  JUNCTION     0.02     0.18    16.31     0  01:48        0.18
  145                  JUNCTION     0.55     2.06    17.45     0  01:37        2.06
  146                  JUNCTION     0.71     2.49    17.46     0  01:40        2.49
  147                  JUNCTION     0.30     1.90    18.00     0  01:31        1.90
  148                  JUNCTION     0.60     2.40    17.34     0  01:43        2.40
  149                  JUNCTION     0.25     1.90    18.00     0  01:32        1.88
  150                  JUNCTION     0.47     2.19    18.00     0  01:33        2.10
  151                  JUNCTION     0.65     2.48    18.01     0  01:28        2.48
  152                  JUNCTION     0.74     2.43    18.09     0  01:45        2.43
  153                  JUNCTION     0.53     2.04    18.11     0  01:53        2.04
  154                  JUNCTION     0.83     2.40    18.12     0  01:55        2.40
  155                  JUNCTION     0.91     2.36    18.16     0  02:08        2.36
  156                  JUNCTION     0.74     1.92    18.19     0  02:06        1.92
  157                  JUNCTION     0.48     1.55    18.17     0  02:14        1.55
  158                  JUNCTION     0.44     1.64    18.14     0  01:57        1.64
  159                  JUNCTION     0.48     1.80    18.17     0  01:48        1.80
  160                  JUNCTION     0.58     2.00    18.17     0  01:47        2.00
  161                  JUNCTION     1.97     5.15    17.66     0  01:52        5.15
  162                  JUNCTION     2.01     5.20    17.60     0  01:53        5.20
  163                  JUNCTION     2.03     5.24    17.56     0  01:53        5.24
  164                  JUNCTION     2.06     5.27    17.51     0  01:54        5.27
  165                  JUNCTION     2.08     5.31    17.47     0  01:54        5.31
  166                  JUNCTION     2.09     5.34    17.41     0  01:54        5.34
  167                  JUNCTION     2.11     5.36    17.36     0  01:55        5.36
  168                  JUNCTION     2.12     5.37    17.29     0  01:54        5.37
  169                  JUNCTION     2.14     5.38    17.22     0  01:54        5.38
  170                  JUNCTION     2.15     5.38    17.14     0  01:54        5.38
  171                  JUNCTION     2.16     5.38    17.05     0  01:55        5.38
  172                  JUNCTION     2.16     5.37    16.97     0  01:55        5.37
  173                  JUNCTION     2.17     5.36    16.88     0  01:54        5.36
  174                  JUNCTION     2.18     5.34    16.78     0  01:54        5.34
  175                  JUNCTION     2.18     5.32    16.68     0  01:55        5.32
  176                  JUNCTION     2.19     5.30    16.58     0  01:55        5.30
  177                  JUNCTION     2.42     5.57    16.47     0  01:55        5.57
  178                  JUNCTION     0.71     2.30    17.54     0  01:31        2.30
  179                  JUNCTION     0.67     2.73    17.29     0  01:46        2.73
  180                  JUNCTION     0.02     0.18    15.65     0  01:50        0.18
  181                  JUNCTION     0.50     1.99    16.95     0  01:36        1.98
  182                  JUNCTION     0.64     2.37    16.77     0  01:43        2.37
  183                  JUNCTION     0.06     0.22    17.07     0  01:37        0.22
  184                  JUNCTION     0.44     1.69    16.20     0  01:44        1.69
  185                  JUNCTION     0.08     0.78    17.63     0  01:34        0.52
  186                  JUNCTION     0.51     2.31    17.46     0  01:34        2.17
  187                  JUNCTION     0.90     2.71    16.90     0  01:34        2.69
  188                  JUNCTION     1.06     3.46    17.85     0  01:28        3.24
  189                  JUNCTION     1.11     3.35    17.99     0  01:34        3.34
  190                  JUNCTION     1.04     2.93    18.11     0  01:47        2.93
  191                  JUNCTION     1.00     2.64    18.12     0  01:53        2.64
  192                  JUNCTION     0.52     1.77    18.16     0  02:11        1.77
  193                  JUNCTION     0.71     2.32    18.13     0  02:02        2.32
  194                  JUNCTION     1.15     3.23    18.11     0  01:57        3.23
  195                  JUNCTION     0.34     1.29    18.14     0  01:50        1.29
  196                  JUNCTION     0.48     1.80    18.18     0  01:45        1.80
  197                  JUNCTION     0.62     2.20    18.12     0  01:44        2.20
  198                  JUNCTION     1.33     3.65    18.08     0  01:50        3.65
  199                  JUNCTION     1.45     3.96    18.04     0  01:44        3.96
  200                  JUNCTION     0.59     2.08    18.12     0  01:43        2.08
  201                  JUNCTION     0.45     1.64    18.11     0  01:42        1.64
  202                  JUNCTION     0.33     1.37    18.17     0  01:39        1.37
  203                  JUNCTION     0.23     1.47    18.00     0  01:30        1.47
  204                  JUNCTION     0.34     1.98    18.00     0  01:25        1.81
  205                  JUNCTION     1.31     4.18    18.00     0  01:27        3.99
  206                  JUNCTION     1.08     3.95    17.48     0  01:29        3.90
  207                  JUNCTION     0.19     1.66    18.00     0  01:27        1.35
  208                  JUNCTION     0.08     1.15    18.00     0  01:28        0.87
  209                  JUNCTION     0.62     1.68    15.71     0  01:34        1.68
  210                  JUNCTION     0.24     1.14    17.53     0  01:32        1.14
  211                  JUNCTION     0.17     0.56    16.29     0  01:38        0.56
  212                  JUNCTION     0.62     2.22    15.35     0  01:33        2.22
  213                  JUNCTION     0.47     1.38    14.23     0  01:34        1.38
  214                  JUNCTION     0.02     0.15    16.34     0  01:41        0.15
  215                  JUNCTION     0.49     1.07    14.56     0  01:39        1.07
  216                  JUNCTION     0.02     0.16    17.01     0  01:34        0.16
  217                  JUNCTION     0.49     1.00    14.03     0  01:39        1.00
  218                  JUNCTION     0.50     1.03    13.63     0  01:33        1.03
  219                  JUNCTION     0.48     0.97    13.45     0  01:34        0.97
  220                  JUNCTION     0.55     1.12    12.88     0  01:32        1.12
  221                  JUNCTION     0.62     1.32    12.52     0  01:39        1.32
  222                  JUNCTION     0.37     1.18    14.89     0  01:32        1.17
  223                  JUNCTION     0.42     1.52    15.56     0  01:34        1.51
  224                  JUNCTION     0.41     1.58    15.92     0  01:35        1.58
  225                  JUNCTION     0.02     0.17    15.01     0  01:54        0.17
  226                  JUNCTION     0.03     0.17    14.47     0  01:56        0.17
  227                  JUNCTION     0.03     0.16    13.92     0  02:01        0.16
  228                  JUNCTION     0.61     1.32    12.45     0  01:40        1.32
  229                  JUNCTION     0.57     2.26    16.27     0  01:47        2.26
  230                  JUNCTION     0.49     2.36    15.90     0  01:23        1.79
  231                  JUNCTION     0.42     1.75    14.81     0  01:23        1.37
  232                  JUNCTION     0.65     1.40    12.39     0  01:43        1.40
  233                  JUNCTION     0.89     2.95    17.55     0  01:30        2.95
  234                  JUNCTION     0.60     2.46    16.44     0  01:30        2.46
  235                  JUNCTION     0.38     1.34    14.81     0  01:30        1.34
  236                  JUNCTION     0.64     1.41    12.33     0  01:46        1.40
  237                  JUNCTION     2.27     4.99    15.50     0  01:55        4.99
  238                  JUNCTION     1.89     4.05    14.41     0  01:53        4.04
  239                  JUNCTION     1.52     3.15    13.36     0  01:50        3.15
  240                  JUNCTION     1.41     2.70    12.26     0  01:45        2.70
  241                  JUNCTION     1.65     4.16    15.71     0  01:57        4.16
  242                  JUNCTION     0.08     0.26    16.44     0  01:30        0.26
  243                  JUNCTION     0.12     0.39    15.81     0  01:30        0.39
  244                  JUNCTION     0.00     0.00    16.65     0  00:00        0.00
  245                  JUNCTION     0.73     1.86    13.58     0  01:45        1.86
  246                  JUNCTION     1.64     4.16    15.86     0  02:00        4.16
  247                  JUNCTION     0.01     0.07    16.44     0  01:39        0.07
  248                  JUNCTION     0.77     2.99    16.48     0  01:34        2.98
  249                  JUNCTION     0.67     2.44    15.51     0  01:38        2.44
  250                  JUNCTION     1.01     2.89    14.71     0  01:45        2.88
  251                  JUNCTION     1.63     4.18    16.04     0  02:02        4.18
  252                  JUNCTION     0.13     1.06    17.43     0  01:28        0.93
  253                  JUNCTION     0.82     3.20    16.84     0  01:34        3.18
  254                  JUNCTION     1.62     4.21    16.22     0  02:04        4.21
  255                  JUNCTION     0.29     1.63    18.00     0  01:30        1.62
  256                  JUNCTION     0.84     3.28    17.18     0  01:35        3.28
  257                  JUNCTION     0.26     1.73    18.00     0  01:19        1.63
  258                  JUNCTION     1.13     3.58    15.68     0  01:46        3.58
  259                  JUNCTION     1.61     4.25    16.41     0  02:04        4.25
  260                  JUNCTION     0.16     1.68    18.00     0  01:30        1.68
  261                  JUNCTION     0.83     3.23    17.34     0  01:35        3.23
  262                  JUNCTION     0.02     0.18    17.03     0  01:42        0.18
  263                  JUNCTION     1.18     3.85    16.08     0  01:46        3.84
  264                  JUNCTION     1.61     4.28    16.60     0  02:04        4.28
  265                  JUNCTION     0.68     3.24    18.00     0  01:28        2.77
  266                  JUNCTION     0.83     3.23    17.49     0  01:35        3.23
  267                  JUNCTION     0.89     3.39    16.97     0  01:46        3.39
  268                  JUNCTION     1.22     4.03    16.41     0  01:46        4.03
  269                  JUNCTION     1.57     4.29    16.75     0  02:03        4.29
  270                  JUNCTION     1.55     4.29    16.91     0  02:03        4.29
  271                  JUNCTION     0.53     2.16    17.51     0  01:42        2.16
  272                  JUNCTION     0.11     1.22    17.49     0  01:48        1.22
  273                  JUNCTION     0.93     3.58    17.36     0  01:47        3.58
  274                  JUNCTION     1.02     3.90    17.15     0  01:45        3.90
  275                  JUNCTION     1.52     4.30    17.05     0  02:01        4.29
  276                  JUNCTION     1.46     4.26    17.17     0  02:01        4.26
  277                  JUNCTION     1.32     4.09    17.26     0  02:01        4.08
  278                  JUNCTION     1.24     3.98    17.36     0  02:00        3.98
  279                  JUNCTION     0.39     1.77    17.99     0  01:41        1.68
  280                  JUNCTION     0.41     1.87    17.89     0  01:41        1.81
  281                  JUNCTION     0.82     3.50    18.00     0  01:30        3.40
  282                  JUNCTION     0.44     2.20    17.89     0  01:43        2.20
  283                  JUNCTION     0.47     2.34    17.83     0  01:45        2.34
  284                  JUNCTION     0.09     1.47    18.00     0  01:37        1.00
  285                  JUNCTION     0.92     3.60    17.57     0  01:47        3.60
  286                  JUNCTION     0.93     3.62    17.67     0  01:47        3.62
  287                  JUNCTION     0.90     3.60    17.77     0  01:45        3.60
  288                  JUNCTION     0.88     3.55    17.85     0  01:45        3.54
  289                  JUNCTION     0.21     1.37    17.93     0  01:39        1.36
  290                  JUNCTION     0.90     3.80    18.00     0  01:39        3.80
  291                  JUNCTION     1.01     4.09    18.00     0  01:40        4.09
  292                  JUNCTION     1.05     4.32    18.00     0  01:39        4.20
  293                  JUNCTION     1.05     4.27    17.81     0  01:39        4.11
  294                  JUNCTION     0.71     3.22    18.00     0  01:34        3.19
  295                  JUNCTION     0.09     1.15    18.00     0  01:35        1.07
  296                  JUNCTION     0.76     3.32    17.99     0  01:30        3.26
  297                  JUNCTION     0.70     3.12    17.96     0  01:43        3.10
  298                  JUNCTION     0.14     1.15    18.00     0  01:33        0.80
  299                  JUNCTION     1.15     3.85    17.43     0  02:01        3.85
  300                  JUNCTION     1.07     3.70    17.48     0  02:01        3.69
  301                  JUNCTION     0.97     3.52    17.49     0  02:01        3.52
  302                  JUNCTION     0.81     3.16    17.51     0  02:01        3.16
  303                  JUNCTION     0.20     1.66    18.00     0  01:32        1.66
  304                  JUNCTION     0.44     2.34    18.00     0  01:43        2.34
  305                  JUNCTION     0.33     1.94    18.02     0  01:46        1.94
  306                  JUNCTION     0.54     2.73    18.00     0  01:38        2.73
  307                  JUNCTION     0.40     1.52    18.19     0  01:49        1.52
  308                  JUNCTION     0.60     2.23    18.16     0  01:56        2.23
  309                  JUNCTION     0.30     1.30    18.15     0  02:00        1.30
  310                  JUNCTION     0.38     1.51    18.18     0  01:47        1.51
  311                  JUNCTION     0.35     1.41    18.21     0  01:47        1.41
  312                  JUNCTION     0.28     1.28    18.13     0  02:00        1.28
  313                  JUNCTION     0.33     1.32    18.17     0  01:49        1.32
  314                  JUNCTION     0.35     1.40    18.20     0  01:47        1.40
  315                  JUNCTION     0.33     1.37    18.17     0  01:48        1.37
  316                  JUNCTION     0.36     1.51    18.18     0  01:45        1.51
  317                  JUNCTION     0.36     1.54    18.34     0  01:44        1.54
  318                  JUNCTION     0.14     1.15    18.00     0  01:34        1.08
  319                  JUNCTION     0.11     1.15    18.00     0  01:34        1.15
  320                  JUNCTION     0.15     0.93    17.78     0  01:30        0.93
  321                  JUNCTION     0.12     0.56    17.23     0  01:50        0.56
  322                  JUNCTION     0.14     0.79    17.59     0  01:30        0.79
  323                  JUNCTION     0.05     1.15    18.00     0  01:44        0.61
  324                  JUNCTION     0.14     0.89    17.69     0  01:43        0.73
  325                  JUNCTION     0.13     0.96    17.76     0  01:42        0.77
  326                  JUNCTION     0.13     0.96    17.76     0  01:42        0.79
  327                  JUNCTION     0.17     1.08    17.75     0  01:41        0.94
  328                  JUNCTION     0.17     1.33    18.00     0  01:41        0.96
  329                  JUNCTION     0.08     1.15    18.00     0  01:41        0.80
  330                  JUNCTION     0.20     1.06    17.73     0  01:48        1.04
  331                  JUNCTION     0.09     1.12    17.97     0  01:40        0.84
  332                  JUNCTION     0.15     0.95    17.75     0  01:47        0.93
  333                  JUNCTION     0.09     1.00    17.85     0  01:40        0.88
  334                  JUNCTION     0.09     1.12    17.97     0  01:40        0.90
  335                  JUNCTION     0.16     1.17    17.97     0  01:39        1.01
  336                  JUNCTION     0.19     1.14    17.99     0  01:44        1.09
  337                  JUNCTION     0.41     1.48    18.15     0  01:32        1.48
  338                  JUNCTION     0.24     1.26    18.11     0  02:05        1.26
  339                  JUNCTION     0.32     1.29    18.14     0  02:05        1.29
  340                  JUNCTION     0.36     1.34    18.19     0  02:00        1.34
  341                  JUNCTION     0.29     1.31    18.16     0  02:10        1.31
  342                  JUNCTION     0.20     1.16    18.01     0  01:38        1.16
  343                  JUNCTION     0.14     1.16    18.01     0  01:48        1.16
  344                  JUNCTION     0.04     0.33    17.18     0  02:14        0.33
  345                  JUNCTION     0.09     1.16    18.01     0  01:38        1.16
  346                  JUNCTION     0.04     1.15    18.00     0  01:46        1.15
  348                  JUNCTION     0.00     0.00    16.85     0  00:00        0.00
  349                  JUNCTION     0.10     1.16    18.01     0  01:29        1.16
  350                  JUNCTION     0.35     1.31    18.16     0  02:10        1.31
  z_0512_001_005       JUNCTION     0.25     1.26    18.11     0  01:56        1.26
  z_0512_001_013       JUNCTION     0.07     1.10    17.95     0  01:37        0.63
  z_0512_001_015       JUNCTION     0.10     1.15    18.00     0  01:31        0.58
  z_0512_001_020       JUNCTION     0.28     1.29    18.14     0  02:01        1.29
  z_0512_001_034       JUNCTION     0.17     1.15    18.00     0  01:58        1.15
  z_0512_001_038       JUNCTION     0.38     1.32    18.17     0  02:14        1.32
  z_0512_001_061       JUNCTION     0.14     1.15    18.00     0  01:38        1.10
  z_0512_001_101       JUNCTION     0.00     0.00    16.85     0  00:00        0.00
  z_0512_001_121       JUNCTION     0.09     0.99    17.84     0  01:34        0.97
  z_0512_001_142       JUNCTION     0.15     1.15    18.00     0  01:42        1.08
  z_0512_001_147       JUNCTION     0.16     1.15    18.00     0  01:45        1.14
  z_0512_001_150       JUNCTION     0.17     1.15    18.00     0  01:27        1.15
  347                  OUTFALL      1.04     1.73    11.12     0  01:47        1.73
  
  
  *******************
  Node Inflow Summary
  *******************
  
  -------------------------------------------------------------------------------------------------
                                  Maximum  Maximum                  Lateral       Total        Flow
                                  Lateral    Total  Time of Max      Inflow      Inflow     Balance
                                   Inflow   Inflow   Occurrence      Volume      Volume       Error
  Node                 Type           CMS      CMS  days hr:min    10^6 ltr    10^6 ltr     Percent
  -------------------------------------------------------------------------------------------------
  1                    JUNCTION     0.139    0.139     0  01:30        0.34       0.341       0.927
  2                    JUNCTION     0.133    0.582     0  01:29       0.327        1.38       1.260
  3                    JUNCTION     0.114    0.277     0  01:32        0.28       0.651       0.305
  4                    JUNCTION     0.000    0.374     0  01:30           0       0.956      -0.289
  5                    JUNCTION     0.000    0.373     0  01:30           0       0.989       0.956
  6                    JUNCTION     0.138    0.683     0  01:30       0.338        1.71      -0.473
  7                    JUNCTION     0.090    0.914     0  01:30       0.221        2.25       1.677
  8                    JUNCTION     0.000    0.672     0  01:26           0        2.08       0.083
  9                    JUNCTION     0.296    0.696     0  01:27       0.727        2.04      -0.568
  10                   JUNCTION     0.111    0.184     0  01:30       0.273       0.459       1.685
  11                   JUNCTION     0.139    0.194     0  01:30        0.34       0.592       0.236
  12                   JUNCTION     0.260    0.260     0  01:30       0.639       0.648       0.409
  13                   JUNCTION     0.161    0.224     0  01:27       0.395       0.539       0.193
  14                   JUNCTION     0.000    0.191     0  01:24           0       0.593       0.735
  15                   JUNCTION     0.151    0.302     0  01:29        0.37       0.945      -0.136
  16                   JUNCTION     0.000    0.302     0  01:28           0       0.948       0.158
  17                   JUNCTION     0.000    0.249     0  01:28           0       0.768       0.326
  18                   JUNCTION     0.140    0.445     0  01:28       0.344        1.19      -0.084
  19                   JUNCTION     0.000    0.349     0  01:29           0        1.14       0.342
  20                   JUNCTION     0.076    0.424     0  01:29       0.187        1.32      -0.383
  21                   JUNCTION     0.132    0.143     0  01:30       0.323       0.373       1.678
  22                   JUNCTION     0.000    0.094     0  01:36           0      0.0215       0.921
  23                   JUNCTION     0.000    0.114     0  01:34           0       0.178       2.754
  24                   JUNCTION     0.000    0.086     0  01:33           0      0.0259       1.127
  25                   JUNCTION     0.145    0.179     0  01:27       0.357       0.372       2.809
  26                   JUNCTION     0.189    0.189     0  01:30       0.464       0.465       0.120
  27                   JUNCTION     0.166    0.321     0  01:24       0.408       0.831       1.099
  28                   JUNCTION     0.000    0.109     0  01:15           0       0.398       0.938
  29                   JUNCTION     0.179    0.256     0  01:30       0.439       0.833       0.877
  30                   JUNCTION     0.000    0.538     0  01:25           0        1.45      -0.817
  31                   JUNCTION     0.268    0.402     0  01:29       0.658        1.06       1.046
  32                   JUNCTION     0.000    0.427     0  01:27           0        1.23      -0.637
  33                   JUNCTION     0.143    0.553     0  01:30       0.352         1.6       0.856
  34                   JUNCTION     0.000    0.585     0  01:30           0        1.74      -0.775
  35                   JUNCTION     0.000    0.613     0  01:31           0        1.79       0.078
  36                   JUNCTION     0.000    0.140     0  01:35           0       0.313      -0.121
  37                   JUNCTION     0.076    0.499     0  01:29       0.187        1.57       1.352
  38                   JUNCTION     0.144    1.192     0  01:26       0.353        5.26      -0.444
  39                   JUNCTION     0.257    0.737     0  01:26       0.632        3.37       0.130
  40                   JUNCTION     0.154    0.806     0  01:27       0.378         2.7      -0.491
  41                   JUNCTION     0.000    0.689     0  01:28           0        1.92       1.037
  42                   JUNCTION     0.000    0.124     0  01:38           0      0.0796      -1.594
  43                   JUNCTION     0.358    0.358     0  01:30       0.879       0.904       1.315
  44                   JUNCTION     0.000    0.560     0  01:29           0        1.54       1.262
  45                   JUNCTION     0.000    1.427     0  01:29           0        4.51      -1.002
  46                   JUNCTION     0.114    0.730     0  01:26        0.28        2.34       0.827
  47                   JUNCTION     0.000    1.643     0  01:30           0        6.07      -0.110
  48                   JUNCTION     0.000    1.665     0  01:27           0        6.82       0.283
  49                   JUNCTION     0.000    0.170     0  01:35           0       0.152      -0.710
  50                   JUNCTION     0.221    0.329     0  01:30       0.542       0.677       3.257
  51                   JUNCTION     0.395    0.476     0  01:30        0.97        1.14      -0.235
  52                   JUNCTION     0.000    0.316     0  01:29           0       0.883       0.876
  53                   JUNCTION     0.355    0.736     0  01:30       0.871        1.81      -0.505
  54                   JUNCTION     0.119    0.285     0  01:25       0.292       0.412       1.772
  55                   JUNCTION     0.000    0.144     0  01:26           0      0.0829       1.020
  56                   JUNCTION     0.510    0.510     0  01:30        1.25        1.25       0.322
  57                   JUNCTION     0.000    2.124     0  01:34           0        8.93       0.123
  58                   JUNCTION     0.201    1.818     0  01:33       0.494        7.78      -0.096
  59                   JUNCTION     0.000    1.593     0  01:26           0        6.86      -0.301
  60                   JUNCTION     0.244    1.895     0  01:25       0.598         7.6      -0.167
  61                   JUNCTION     0.114    2.047     0  01:25        0.28        8.21      -0.045
  62                   JUNCTION     0.159    2.172     0  01:25       0.391        8.83       0.287
  63                   JUNCTION     0.141    2.158     0  01:25       0.346        9.21      -0.291
  64                   JUNCTION     0.279    2.221     0  01:24       0.684        9.97      -0.001
  65                   JUNCTION     0.138    2.152     0  01:23       0.338        10.9       0.040
  66                   JUNCTION     0.139    2.218     0  01:24        0.34        10.5      -0.017
  67                   JUNCTION     0.114    2.277     0  01:23        0.28        11.8      -0.053
  68                   JUNCTION     0.114    2.173     0  01:23        0.28          12      -0.002
  69                   JUNCTION     0.000    2.178     0  01:41           0        12.4      -0.007
  70                   JUNCTION     0.000    2.174     0  01:42           0        12.8      -0.029
  71                   JUNCTION     0.114    2.248     0  01:42        0.28        13.3       0.002
  72                   JUNCTION     0.136    0.733     0  01:25       0.333        3.52      -0.388
  73                   JUNCTION     0.183    0.745     0  01:26       0.451        3.21       0.782
  74                   JUNCTION     0.000    0.661     0  01:37           0        2.75      -0.006
  75                   JUNCTION     0.000    0.711     0  01:36           0        2.75       0.006
  76                   JUNCTION     0.000    0.853     0  01:36           0        2.76      -0.148
  77                   JUNCTION     0.136    0.842     0  01:29       0.335        2.71      -0.254
  78                   JUNCTION     0.091    0.834     0  01:35       0.224         2.3      -0.353
  79                   JUNCTION     0.000    0.701     0  01:30           0        1.96      -0.210
  80                   JUNCTION     0.000    0.745     0  01:30           0        1.88      -0.062
  81                   JUNCTION     0.000    0.087     0  01:28           0      0.0681       3.182
  82                   JUNCTION     0.000    0.126     0  01:27           0       0.181      -0.013
  83                   JUNCTION     0.132    0.212     0  01:30       0.325       0.474       0.315
  84                   JUNCTION     0.126    0.222     0  01:30       0.309       0.647       0.049
  85                   JUNCTION     0.000    0.168     0  01:27           0       0.563      -0.361
  86                   JUNCTION     0.323    0.415     0  01:28       0.793        1.25       0.226
  87                   JUNCTION     0.200    0.571     0  01:29       0.492        1.72       0.483
  88                   JUNCTION     0.000    0.543     0  01:29           0        1.73       0.584
  89                   JUNCTION     0.308    0.308     0  01:30       0.755       0.769       0.573
  90                   JUNCTION     0.119    0.369     0  01:30       0.306        1.04       0.011
  91                   JUNCTION     0.123    0.490     0  01:30       0.303        1.35       0.971
  92                   JUNCTION     0.239    0.722     0  01:30       0.587         1.9      -0.031
  93                   JUNCTION     0.312    1.401     0  01:25       0.767        6.19      -0.304
  94                   JUNCTION     0.125    2.329     0  01:41       0.307        13.9       0.035
  95                   JUNCTION     0.457    0.606     0  01:30        1.12        1.55      -0.278
  96                   JUNCTION     0.226    0.822     0  01:30       0.555        2.12       2.353
  97                   JUNCTION     0.000    0.193     0  01:30           0       0.491       0.341
  98                   JUNCTION     0.065    0.747     0  01:30       0.159        2.02      -0.364
  99                   JUNCTION     0.138    0.310     0  01:30       0.338       0.881       0.299
  100                  JUNCTION     0.133    0.225     0  01:29       0.327       0.621       0.168
  101                  JUNCTION     0.000    0.145     0  01:34           0       0.292      -0.546
  102                  JUNCTION     0.088    0.368     0  01:27       0.215        1.61      -0.428
  103                  JUNCTION     0.140    0.290     0  01:24       0.344       0.913       0.265
  104                  JUNCTION     0.000    0.272     0  01:23           0       0.725      -0.902
  105                  JUNCTION     0.000    0.277     0  01:25           0       0.386      -0.258
  106                  JUNCTION     0.116    0.196     0  01:24       0.284       0.595      -0.313
  107                  JUNCTION     0.000    0.091     0  01:24           0       0.108       1.276
  108                  JUNCTION     0.000    0.071     0  01:26           0      0.0909       0.853
  109                  JUNCTION     0.270    0.391     0  01:29       0.664       0.912      -0.256
  110                  JUNCTION     0.000    0.247     0  01:29           0       0.284      -1.644
  111                  JUNCTION     0.147    0.270     0  01:32       0.361       0.932       0.518
  112                  JUNCTION     0.442    0.499     0  01:29        1.08         1.8       0.131
  113                  JUNCTION     0.076    0.308     0  01:28       0.187       0.895      -0.412
  114                  JUNCTION     0.000    0.241     0  01:27           0       0.761      -0.181
  115                  JUNCTION     0.114    0.410     0  01:23        0.28        1.61       0.000
  116                  JUNCTION     0.000    0.094     0  01:35           0      0.0557       0.490
  117                  JUNCTION     0.000    0.170     0  01:29           0       0.506      -0.706
  118                  JUNCTION     0.000    0.089     0  01:29           0       0.069       0.476
  119                  JUNCTION     0.000    0.735     0  01:31           0        2.06       2.833
  120                  JUNCTION     0.000    3.267     0  01:35           0        22.5       0.029
  121                  JUNCTION     0.000    3.448     0  01:35           0        22.4      -0.149
  122                  JUNCTION     0.000    3.332     0  01:40           0        20.4      -0.042
  123                  JUNCTION     0.159    1.441     0  01:26       0.408        6.61       0.332
  124                  JUNCTION     0.389    1.938     0  01:25       0.955          10       0.011
  125                  JUNCTION     0.000    0.303     0  01:24           0       0.499       1.496
  126                  JUNCTION     0.000    0.304     0  01:24           0       0.625      -0.081
  127                  JUNCTION     0.000    0.308     0  01:24           0       0.708       0.021
  128                  JUNCTION     0.754    0.754     0  01:30        1.85        2.12       0.069
  129                  JUNCTION     0.251    0.602     0  01:23       0.617        2.01       0.034
  130                  JUNCTION     0.154    0.675     0  01:24       0.378        2.18       0.030
  131                  JUNCTION     0.000    0.592     0  01:24           0        2.09       0.043
  132                  JUNCTION     0.139    0.639     0  01:27       0.342        2.38       0.172
  133                  JUNCTION     0.000    0.955     0  01:30           0        4.03      -0.459
  134                  JUNCTION     0.139    0.967     0  01:32        0.34        4.41      -0.010
  135                  JUNCTION     0.114    0.978     0  01:33        0.28        4.69       0.035
  136                  JUNCTION     0.000    0.893     0  01:35           0        4.69       0.041
  137                  JUNCTION     0.136    0.909     0  01:36       0.335        5.03       0.031
  138                  JUNCTION     0.212    1.048     0  01:24        0.52        5.56       0.054
  139                  JUNCTION     0.152    1.142     0  01:24       0.372        5.93       0.311
  140                  JUNCTION     0.136    4.068     0  01:41       0.333        28.7      -0.003
  141                  JUNCTION     0.221    4.675     0  01:34       0.542        31.3       0.277
  142                  JUNCTION     0.114    0.170     0  01:27        0.28       0.367       1.910
  143                  JUNCTION     0.000    0.134     0  01:28           0       0.495      -0.990
  144                  JUNCTION     0.000    0.057     0  01:46           0      0.0652      -2.564
  145                  JUNCTION     0.136    0.439     0  01:24       0.333        1.84      -0.075
  146                  JUNCTION     0.000    0.332     0  01:32           0        1.12      -0.529
  147                  JUNCTION     0.114    0.251     0  01:30        0.28       0.525      -0.187
  148                  JUNCTION     0.000    0.597     0  01:33           0         2.2      -0.149
  149                  JUNCTION     0.000    0.332     0  01:32           0       0.544      -2.028
  150                  JUNCTION     0.161    0.310     0  01:32       0.396       0.778       0.248
  151                  JUNCTION     0.000    0.308     0  01:28           0        0.88      -0.486
  152                  JUNCTION     0.312    0.500     0  01:26       0.767        1.95       0.433
  153                  JUNCTION     0.000    0.166     0  01:26           0       0.289       0.082
  154                  JUNCTION     0.000    0.166     0  01:30           0        0.26       1.155
  155                  JUNCTION     0.000    0.128     0  02:41           0       0.615      -0.044
  156                  JUNCTION     0.176    0.284     0  01:30       0.432       0.784       0.643
  157                  JUNCTION     0.000    0.151     0  01:31           0       0.185      -0.909
  158                  JUNCTION     0.000    0.227     0  01:28           0       0.176      -0.602
  159                  JUNCTION     0.000    0.320     0  01:25           0       0.513       0.855
  160                  JUNCTION     0.259    0.358     0  01:28       0.636        1.23      -0.301
  161                  JUNCTION     0.270    2.074     0  01:38       0.662        10.7       0.045
  162                  JUNCTION     0.114    1.893     0  01:39        0.28          11       0.064
[...]
  77                          2.12      2.12      2.13      0.18         0.21
  197                         2.05      2.05      2.09      0.01         0.01
  465                         0.01      0.01      4.56      0.01         0.01
  468                         0.22      0.22      4.49      0.01         0.01
  466                         0.26      0.26      4.52      0.01         0.01
  219                         1.20      1.20      1.25      0.01         0.01
  218                         0.50      0.50      0.70      0.01         0.01
  274                         0.46      0.46      0.54      0.01         0.01
  230                         0.95      0.95      1.42      0.07         0.07
  430                         0.87      0.87      4.50      0.01         0.01
  104                         1.40      1.40      1.64      0.01         0.01
  429                         0.73      0.73      4.61      0.01         0.01
  352                         0.75      0.75      4.60      0.01         0.01
  241                         0.98      0.98      1.20      0.01         0.01
  8                           1.16      1.16      1.30      0.09         0.08
  357                         0.56      0.56      4.58      0.01         0.01
  9                           1.19      1.19      1.23      0.25         0.25
  14                          0.94      0.94      1.17      0.01         0.01
  382                         0.74      0.74      0.91      0.01         0.01
  381                         0.28      0.28      4.53      0.01         0.01
  12                          1.27      1.27      1.43      0.03         0.01
  433                         0.63      0.63      4.57      0.01         0.01
  102                         1.77      2.13      1.78      1.49         1.07
  60                          1.50      1.50      1.61      0.01         0.01
  525                         0.01      0.01      4.27      0.01         0.01
  504                         0.01      0.01      4.28      0.01         0.01
  322                         1.49      1.49      1.56      0.01         0.01
  340                         0.99      0.99      1.04      0.24         0.23
  315                         1.68      1.68      1.70      0.01         0.01
  255                         0.51      0.51      0.70      0.01         0.01
  403                         0.01      0.01      4.30      0.01         0.01
  337                         1.46      1.46      1.62      0.01         0.01
  38                          1.79      1.90      1.79      1.04         0.79
  76                          2.11      2.11      2.12      0.17         0.18
  400                         0.01      0.01      4.16      0.01         0.01
  198                         1.99      1.99      2.05      0.01         0.01
  476                         0.49      0.49      0.80      0.01         0.01
  220                         1.14      1.14      1.20      0.01         0.01
  481                         0.29      0.29      4.46      0.01         0.01
  385                         1.22      1.22      4.50      0.01         0.01
  279                         1.26      1.26      1.29      0.01         0.01
  240                         0.98      0.98      1.16      0.01         0.01
  353                         0.84      0.84      4.61      0.01         0.01
  239                         0.94      0.94      1.07      0.01         0.01
  10                          1.07      1.07      1.19      0.01         0.01
  355                         0.73      0.74      4.51      0.02         0.01
  11                          1.04      1.04      1.26      0.01         0.01
  69                          1.32      1.32      1.50      0.01         0.01
  61                          1.36      1.36      1.50      0.12         0.11
  103                         2.09      2.09      2.13      1.10         1.03
  522                         0.01      0.01      4.33      0.01         0.01
  323                         1.45      1.45      1.49      0.01         0.01
  338                         0.95      0.98      0.99      0.40         0.32
  314                         1.66      1.66      1.68      0.01         0.01
  256                         0.51      0.51      0.74      0.01         0.01
  520                         0.01      0.01      4.50      0.01         0.01
  401                         0.01      0.01      4.50      0.01         0.01
  37                          1.90      1.93      1.90      0.87         0.76
  336                         1.43      1.48      1.46      0.33         0.20
  75                          2.10      2.10      2.11      0.09         0.10
  398                         0.01      0.01      4.19      0.01         0.01
  199                         1.93      1.93      1.99      0.01         0.01
  229                         0.99      0.99      1.14      0.01         0.01
  221                         0.59      0.59      0.82      0.01         0.01
  238                         0.92      0.92      1.07      0.01         0.01
  354                         0.94      0.94      1.04      0.01         0.01
  388                         0.82      0.82      4.58      0.01         0.01
  384                         0.84      0.84      1.08      0.01         0.01
  356                         0.74      0.74      4.61      0.01         0.01
  237                         1.04      1.04      1.22      0.01         0.01
  67                          1.20      1.20      1.32      0.01         0.01
  431                         1.23      1.23      1.64      0.01         0.01
  63                          1.95      1.95      2.09      0.43         0.44
  62                          1.91      1.91      2.03      0.01         0.01
  521                         0.01      0.01      4.36      0.01         0.01
  503                         0.01      0.01      4.30      0.01         0.01
  324                         1.38      1.38      1.45      0.01         0.02
  523                         0.01      0.01      4.56      0.01         0.01
  506                         0.01      0.01      4.30      0.01         0.01
  312                         1.64      1.64      1.66      0.01         0.01
  258                         0.55      0.55      0.73      0.01         0.01
  518                         0.14      0.14      4.55      0.01         0.01
  399                         0.01      0.01      4.55      0.01         0.01
  36                          1.93      1.95      1.93      0.71         0.63
  335                         1.46      1.63      1.48      0.95         0.70
  74                          2.08      2.08      2.10      0.11         0.11
  396                         0.01      0.01      4.21      0.01         0.01
  222                         1.87      1.87      1.93      0.01         0.01
  228                         0.75      0.75      0.99      0.02         0.01
  236                         1.04      1.04      1.20      0.01         0.01
  66                          1.49      1.49      1.84      0.01         0.01
  65                          1.49      1.49      1.87      0.01         0.01
  64                          1.83      1.85      1.95      0.18         0.12
  517                         0.17      0.17      4.41      0.01         0.01
  325                         1.34      1.34      1.38      0.06         0.03
  313                         1.62      1.62      1.64      0.01         0.01
  259                         0.55      0.55      0.76      0.01         0.01
  516                         0.17      0.17      4.59      0.01         0.01
  397                         0.01      0.01      4.59      0.01         0.01
  34                          1.94      1.94      1.95      0.46         0.44
  334                         1.48      1.48      1.63      0.01         0.01
  73                          2.06      2.06      2.08      0.06         0.04
  394                         0.01      0.01      4.21      0.01         0.01
  225                         1.81      1.81      1.87      0.01         0.01
  480                         0.01      0.01      4.47      0.01         0.01
  389                         0.82      0.82      4.53      0.01         0.01
  234                         1.23      1.23      1.49      0.01         0.01
  386                         1.20      1.20      4.61      0.01         0.01
  1                           1.53      1.53      1.71      0.15         0.16
  387                         1.37      1.37      1.49      0.01         0.01
  515                         0.21      0.21      4.41      0.01         0.01
  502                         0.14      0.14      4.37      0.01         0.01
  326                         1.31      1.31      1.34      0.01         0.01
  311                         1.60      1.60      1.62      0.01         0.01
  260                         0.56      0.56      0.77      0.01         0.01
  514                         0.21      0.21      4.61      0.01         0.01
  395                         0.01      0.01      4.61      0.01         0.01
  33                          1.88      1.88      1.94      0.04         0.04
  333                         1.41      1.41      1.48      0.05         0.05
  72                          2.05      2.05      2.06      0.03         0.03
  478                         0.36      0.59      0.69      0.30         0.05
  392                         0.01      0.01      4.22      0.01         0.01
  226                         1.75      1.75      1.81      0.01         0.01
  513                         0.25      0.25      4.43      0.01         0.01
  327                         1.27      1.27      1.31      0.01         0.01
  507                         0.15      0.15      4.35      0.01         0.01
  310                         1.58      1.58      1.60      0.01         0.01
  261                         0.57      0.57      0.78      0.01         0.01
  512                         0.25      0.25      4.63      0.01         0.01
  393                         0.01      0.01      4.63      0.01         0.01
  32                          1.75      1.75      1.88      0.04         0.01
  332                         1.31      1.31      1.41      0.01         0.01
  71                          2.03      2.03      2.05      0.02         0.04
  227                         1.56      1.56      1.75      0.01         0.01
  511                         0.24      0.24      4.43      0.01         0.01
  501                         0.26      0.26      4.42      0.01         0.01
  329                         1.24      1.24      1.27      0.01         0.01
  309                         1.56      1.56      1.58      0.09         0.10
  262                         0.58      0.58      0.79      0.01         0.01
  510                         0.24      0.24      4.61      0.01         0.01
  31                          1.70      1.70      1.75      0.01         0.01
  331                         1.16      1.16      1.31      0.01         0.01
  479                         0.01      0.01      4.30      0.01         0.01
  70                          2.00      2.00      2.03      0.06         0.05
  390                         0.01      0.01      4.26      0.01         0.01
  273                         0.01      0.01      1.29      0.01         0.01
  509                         0.25      0.25      4.44      0.01         0.01
  500                         0.27      0.27      4.42      0.01         0.01
  299                         1.21      1.21      1.24      0.01         0.01
  508                         0.22      0.22      4.38      0.01         0.01
  308                         1.54      1.54      1.56      0.07         0.04
  263                         0.62      0.62      0.81      0.01         0.01
  391                         0.01      0.01      4.59      0.01         0.01
  30                          1.64      1.64      1.70      0.01         0.01
  330                         1.02      1.02      1.16      0.01         0.01
  29                          1.94      1.94      2.00      0.06         0.06
  495                         0.28      0.28      4.45      0.01         0.01
  486                         0.28      0.28      4.42      0.01         0.01
  298                         1.20      1.38      1.21      0.32         0.08
  307                         1.52      1.52      1.54      0.06         0.03
  264                         0.66      0.76      0.83      0.19         0.01
  300                         1.21      1.21      1.64      0.01         0.01
  496                         0.91      0.91      1.02      0.01         0.01
  372                         0.28      0.28      4.37      0.01         0.01
  303                         1.89      1.89      1.94      0.01         0.02
  497                         0.31      0.31      4.53      0.01         0.01
  487                         0.31      0.31      4.50      0.01         0.01
  297                         1.32      1.36      1.38      0.35         0.28
  282                         1.50      1.50      1.52      0.01         0.01
  265                         0.72      1.02      0.81      0.57         0.27
  301                         1.08      1.08      1.21      0.02         0.01
  302                         0.99      1.20      1.02      0.81         0.52
  304                         1.84      1.84      1.89      0.04         0.03
  272                         0.63      0.63      1.33      0.01         0.01
  498                         0.72      0.72      4.70      0.01         0.01
  488                         0.33      0.33      4.60      0.01         0.01
  283                         1.47      1.47      1.50      0.01         0.01
  281                         1.45      1.47      1.49      0.16         0.06
  499                         0.96      0.96      1.08      0.01         0.01
  296                         1.05      1.19      1.16      0.22         0.04
  305                         1.78      1.78      1.84      0.01         0.01
  113                         1.43      1.44      1.47      0.17         0.11
  285                         1.43      1.43      1.47      0.01         0.01
  293                         1.77      1.78      1.78      0.34         0.22
  294                         1.08      1.08      1.17      0.03         0.01
  494                         0.60      0.60      4.58      0.01         0.01
  489                         0.38      0.38      4.48      0.01         0.01
  101                         1.41      1.43      1.44      0.21         0.13
  286                         1.34      1.34      1.43      0.01         0.01
  280                         0.96      0.96      1.08      0.01         0.01
  493                         0.47      0.47      4.40      0.01         0.01
  287                         0.90      0.90      1.08      0.02         0.01
  288                         1.06      1.29      1.22      0.33         0.08
  292                         1.73      1.75      1.78      0.25         0.14
  90                          1.38      1.43      1.43      0.23         0.14
  485                         0.37      0.37      4.41      0.01         0.01
  484                         0.42      0.42      4.41      0.01         0.01
  124                         0.77      0.83      0.84      0.08         0.01
  490                         0.42      0.42      4.35      0.01         0.01
  278                         1.26      1.26      1.34      0.01         0.01
  491                         0.80      0.80      0.90      0.01         0.01
  290                         1.69      1.69      1.75      0.04         0.06
  271                         0.87      0.87      1.16      0.01         0.01
  289                         1.48      1.61      1.52      0.33         0.12
  492                         0.75      0.75      4.68      0.01         0.01
  440                         0.83      0.83      0.99      0.01         0.01
  79                          1.32      1.32      1.43      0.01         0.01
  268                         1.22      1.22      1.26      0.01         0.01
  135                         0.83      0.83      1.03      0.01         0.01
  224                         1.55      1.60      1.61      0.34         0.24
  317                         1.25      1.25      1.35      0.04         0.01
  291                         1.64      1.64      1.69      0.01         0.01
  68                          1.28      1.28      1.32      0.01         0.01
  410                         0.73      0.73      0.83      0.01         0.01
  257                         1.19      1.33      1.22      0.36         0.16
  146                         0.79      0.79      0.90      0.01         0.01
  482                         0.83      0.83      4.56      0.01         0.01
  212                         1.57      1.70      1.60      0.35         0.18
  190                         1.19      1.19      1.38      0.04         0.03
  328                         1.59      1.59      1.64      0.01         0.01
  519                         0.82      0.82      4.44      0.01         0.01
  477                         0.85      0.85      4.44      0.01         0.01
  306                         1.17      1.17      1.25      0.01         0.01
  447                         0.79      0.79      1.02      0.07         0.01
  57                          1.24      1.24      1.28      0.21         0.16
  246                         1.29      1.29      1.33      0.22         0.21
  157                         0.90      0.90      1.10      0.01         0.01
  24                          1.08      1.15      1.19      0.31         0.22
  201                         1.51      1.51      1.70      0.01         0.01
  339                         1.57      1.57      1.59      0.01         0.01
  295                         1.12      1.12      1.17      0.04         0.01
  2                           0.95      1.13      1.04      0.30         0.11
  46                          1.19      1.20      1.24      0.22         0.16
  383                         0.79      0.79      0.90      0.01         0.01
  235                         1.27      1.37      1.29      0.71         0.53
  168                         0.93      0.93      1.04      0.11         0.09
  13                          1.32      1.32      1.51      0.04         0.01
  112                         1.50      1.60      1.57      0.28         0.16
  266                         0.93      0.93      1.05      0.01         0.01
  284                         1.09      1.09      1.12      0.07         0.01
  454                         0.93      0.93      1.09      0.01         0.01
  35                          1.08      1.08      1.20      0.23         0.21
  179                         1.16      1.16      1.37      0.02         0.04
  367                         1.15      1.15      1.32      0.01         0.01
  350                         1.13      1.13      1.32      0.01         0.01
  483                         0.87      0.87      4.48      0.01         0.01
  233                         1.27      1.27      1.60      0.01         0.02
  232                         0.98      0.98      1.11      0.06         0.02
  267                         0.95      1.03      1.05      0.16         0.03
  223                         1.06      1.27      1.10      0.47         0.19
  369                         0.96      0.96      1.08      0.01         0.02
  373                         0.88      0.88      4.66      0.01         0.01
  270                         1.00      1.00      1.27      0.01         0.01
  269                         1.11      1.11      1.27      0.21         0.23
  

  Analysis begun on:  Wed Dec 22 20:06:26 2021
  Analysis ended on:  Wed Dec 22 20:06:27 2021
  Total elapsed time: 00:00:01