
  EPA STORM WATER MANAGEMENT MODEL - VERSION 5.1 (Build 5.3.0.dev0)
  --------------------------------------------------------------

  
  *********************************************************
  NOTE: The summary statistics displayed in this report are
  based on results found at every computational time step,  
  not just on results from each reporting time step.
  *********************************************************
  
  ****************
  Analysis Options
  ****************
  Flow Units ............... CMS
  Process Models:
    Rainfall/Runoff ........ YES
    RDII ................... NO
    Snowmelt ............... NO
    Groundwater ............ NO
    Flow Routing ........... YES
    Ponding Allowed ........ YES
    Water Quality .......... NO
  Infiltration Method ...... HORTON
  Flow Routing Method ...... DYNWAVE
  Surcharge Method ......... EXTRAN
  Starting Date ............ 12/15/2017 00:00:00
  Ending Date .............. 12/15/2017 06:00:00
  Antecedent Dry Days ...... 0.0
  Report Time Step ......... 00:01:00
  Wet Time Step ............ 00:01:00
  Dry Time Step ............ 06:00:00
  Routing Time Step ........ 30.00 sec
  Variable Time Step ....... YES
  Maximum Trials ........... 8
  Number of Threads ........ 1
  Head Tolerance ........... 0.001500 m
  
  
  **************************        Volume         Depth
  Runoff Quantity Continuity     hectare-m            mm
  **************************     ---------       -------
  Total Precipitation ......        11.436        23.286
  Evaporation Loss .........         0.000         0.000
  Infiltration Loss ........         1.331         2.710
  Surface Runoff ...........         8.976        18.277
  Final Storage ............         1.130         2.300
  Continuity Error (%) .....        -0.011
  
  
  **************************        Volume        Volume
  Flow Routing Continuity        hectare-m      10^6 ltr
  **************************     ---------     ---------
  Dry Weather Inflow .......         0.000         0.000
  Wet Weather Inflow .......         8.978        89.778
  Groundwater Inflow .......         0.000         0.000
  RDII Inflow ..............         0.000         0.000
  External Inflow ..........         0.000         0.000
  External Outflow .........         8.924        89.240
  Flooding Loss ............         0.000         0.000
  Evaporation Loss .........         0.000         0.000
  Exfiltration Loss ........         0.000         0.000
  Initial Stored Volume ....         0.000         0.000
  Final Stored Volume ......         0.047         0.473
  Continuity Error (%) .....         0.073
  
  
  *************************
  Highest Continuity Errors
  *************************
  Node 302 (5.87%)
  Node 227 (5.47%)
  Node 24 (5.16%)
  Node 272 (-3.50%)
  Node 50 (3.18%)
  
  
  ***************************
  Time-Step Critical Elements
  ***************************
  Link 26 (41.04%)
  Link 163 (9.79%)
  Link 223 (9.74%)
  Link 342 (2.02%)
  Link 365 (1.88%)
  
  
  ********************************
  Highest Flow Instability Indexes
  ********************************
  Link 499 (26)
  Link 491 (18)
  Link 343 (17)
  Link 244 (17)
  Link 342 (15)
  
  
  *************************
  Routing Time Step Summary
  *************************
  Minimum Time Step           :     0.67 sec
  Average Time Step           :    10.19 sec
  Maximum Time Step           :    30.00 sec
  Percent in Steady State     :     0.63
  Average Iterations per Step :     4.64
  Percent Not Converging      :    32.51
  
  
  ***************************
  Subcatchment Runoff Summary
  ***************************
  
  ------------------------------------------------------------------------------------------------------------------------------
                            Total      Total      Total      Total     Imperv       Perv      Total       Total     Peak  Runoff
                           Precip      Runon       Evap      Infil     Runoff     Runoff     Runoff      Runoff   Runoff   Coeff
  Subcatchment                 mm         mm         mm         mm         mm         mm         mm    10^6 ltr      CMS
  ------------------------------------------------------------------------------------------------------------------------------
  532                       23.29       0.00       0.00       2.46      17.57       1.12      18.69        0.39     0.16   0.803
  533                       23.29       0.00       0.00       2.46      17.57       1.12      18.69        0.27     0.11   0.803
  534                       23.29       0.00       0.00       2.46      17.57       1.12      18.69        0.31     0.12   0.803
  535                       23.29       0.00       0.00       2.46      17.57       1.12      18.69        0.37     0.15   0.803
  536                       23.29       0.00       0.00       2.46      17.57       1.12      18.69        0.35     0.14   0.803
  537                       23.29       0.00       0.00       2.46      17.57       1.12      18.69        0.34     0.14   0.803
  538                       23.29       0.00       0.00       2.46      17.57       1.12      18.69        0.33     0.14   0.803
  539                       23.29       0.00       0.00       2.46      17.57       1.12      18.69        0.32     0.13   0.803
  540                       23.29       0.00       0.00       2.46      17.57       1.12      18.69        0.60     0.24   0.803
  541                       23.29       0.00       0.00       2.46      17.57       1.12      18.69        0.58     0.24   0.803
  542                       23.29       0.00       0.00       2.46      17.57       1.12      18.69        0.28     0.12   0.803
  543                       23.29       0.00       0.00       2.46      17.57       1.12      18.69        0.47     0.19   0.803
  544                       23.29       0.00       0.00       2.46      17.57       1.12      18.69        1.08     0.44   0.803
  545                       23.29       0.00       0.00       2.46      17.57       1.12      18.69        0.44     0.18   0.803
  546                       23.29       0.00       0.00       2.46      17.57       1.12      18.69        0.43     0.18   0.803
  547                       23.29       0.00       0.00       2.46      17.57       1.12      18.69        0.38     0.15   0.803
  548                       23.29       0.00       0.00       2.46      17.57       1.12      18.69        0.31     0.12   0.803
  549                       23.29       0.00       0.00       2.46      17.57       1.12      18.69        0.43     0.18   0.803
  550                       23.29       0.00       0.00       2.46      17.57       1.12      18.69        0.44     0.18   0.803
  551                       23.29       0.00       0.00       2.46      17.57       1.12      18.69        0.21     0.09   0.803
  552                       23.29       0.00       0.00       2.46      17.57       1.12      18.69        0.22     0.09   0.803
  553                       23.29       0.00       0.00       2.46      17.57       1.12      18.69        0.21     0.09   0.803
  554                       23.29       0.00       0.00       2.46      17.57       1.12      18.69        0.21     0.09   0.803
  555                       23.29       0.00       0.00       2.46      17.57       1.12      18.69        0.21     0.09   0.803
  556                       23.29       0.00       0.00       2.46      17.57       1.12      18.69        0.21     0.09   0.803
  557                       23.29       0.00       0.00       2.46      17.57       1.12      18.69        0.21     0.09   0.803
  558                       23.29       0.00       0.00       2.46      17.57       1.12      18.69        0.43     0.17   0.803
  559                       23.29       0.00       0.00       2.46      17.57       1.12      18.69        0.22     0.09   0.803
  560                       23.29       0.00       0.00       2.46      17.57       1.12      18.69        0.41     0.17   0.803
  561                       23.29       0.00       0.00       2.46      17.57       1.12      18.69        0.43     0.18   0.803
  562                       23.29       0.00       0.00       2.46      17.57       1.12      18.69        0.37     0.15   0.803
  563                       23.29       0.00       0.00       2.46      17.57       1.12      18.69        0.67     0.27   0.803
  564                       23.29       0.00       0.00       2.46      17.57       1.12      18.69        0.63     0.26   0.803
  565                       23.29       0.00       0.00       2.46      17.57       1.12      18.69        0.60     0.25   0.803
  566                       23.29       0.00       0.00       2.46      17.57       1.12      18.69        0.53     0.22   0.803
  567                       23.29       0.00       0.00       2.46      17.57       1.12      18.69        0.48     0.19   0.803
  568                       23.29       0.00       0.00       2.46      17.57       1.12      18.69        0.43     0.18   0.803
  569                       23.29       0.00       0.00       2.46      17.57       1.12      18.69        0.44     0.18   0.803
  570                       23.29       0.00       0.00       2.46      17.57       1.12      18.69        0.38     0.15   0.803
  571                       23.29       0.00       0.00       2.46      17.57       1.12      18.69        0.66     0.27   0.803
  572                       23.29       0.00       0.00       2.46      17.57       1.12      18.69        0.31     0.12   0.803
  573                       23.29       0.00       0.00       2.46      17.57       1.12      18.69        0.30     0.12   0.803
  574                       23.29       0.00       0.00       2.46      17.57       1.12      18.69        0.29     0.12   0.803
  575                       23.29       0.00       0.00       2.46      17.57       1.12      18.69        0.27     0.11   0.803
  576                       23.29       0.00       0.00       2.46      17.57       1.12      18.69        0.26     0.11   0.803
  577                       23.29       0.00       0.00       2.46      17.57       1.12      18.69        0.24     0.10   0.803
  578                       23.29       0.00       0.00       2.46      17.57       1.12      18.69        0.24     0.10   0.803
  579                       23.29       0.00       0.00       2.46      17.57       1.12      18.69        0.45     0.18   0.803
  580                       23.29       0.00       0.00       2.46      17.57       1.12      18.69        0.21     0.08   0.803
  581                       23.29       0.00       0.00       2.46      17.57       1.12      18.69        0.37     0.15   0.803
  582                       23.29       0.00       0.00       2.46      17.57       1.12      18.69        0.33     0.14   0.803
  583                       23.29       0.00       0.00       2.46      17.57       1.12      18.69        0.57     0.23   0.803
  584                       23.29       0.00       0.00       2.46      17.57       1.12      18.69        0.56     0.23   0.803
  585                       23.29       0.00       0.00       2.46      17.57       1.12      18.69        0.49     0.20   0.803
  586                       23.29       0.00       0.00       2.46      17.57       1.12      18.69        0.36     0.15   0.803
  587                       23.29       0.00       0.00       2.46      17.57       1.12      18.69        0.35     0.14   0.803
  588                       23.29       0.00       0.00       2.46      17.57       1.12      18.69        0.36     0.14   0.803
  589                       23.29       0.00       0.00       2.46      17.57       1.12      18.69        0.35     0.14   0.803
  590                       23.29       0.00       0.00       2.46      17.57       1.12      18.69        0.35     0.14   0.803
  591                       23.29       0.00       0.00       2.46      17.57       1.12      18.69        0.36     0.15   0.803
  592                       23.29       0.00       0.00       2.46      17.57       1.12      18.69        0.36     0.15   0.803
  593                       23.29       0.00       0.00       2.46      17.57       1.12      18.69        0.37     0.15   0.803
  594                       23.29       0.00       0.00       2.46      17.57       1.12      18.69        0.36     0.15   0.803
  595                       23.29       0.00       0.00       2.46      17.57       1.12      18.69        0.37     0.15   0.803
  596                       23.29       0.00       0.00       2.46      17.57       1.12      18.69        0.37     0.15   0.803
  597                       23.29       0.00       0.00       2.46      17.57       1.12      18.69        0.37     0.15   0.803
  598                       23.29       0.00       0.00       2.46      17.57       1.12      18.69        0.38     0.16   0.803
  599                       23.29       0.00       0.00       2.46      17.57       1.12      18.69        0.39     0.16   0.803
  600                       23.29       0.00       0.00       2.46      17.57       1.12      18.69        0.38     0.16   0.803
  601                       23.29       0.00       0.00       2.46      17.57       1.12      18.69        0.40     0.16   0.803
  602                       23.29       0.00       0.00       2.46      17.57       1.12      18.69        0.39     0.16   0.803
  603                       23.29       0.00       0.00       2.46      17.57       1.12      18.69        0.40     0.16   0.803
  604                       23.29       0.00       0.00       2.46      17.57       1.12      18.69        0.41     0.17   0.803
  605                       23.29       0.00       0.00       2.46      17.57       1.12      18.69        0.38     0.15   0.803
  606                       23.29       0.00       0.00       2.46      17.57       1.12      18.69        0.39     0.16   0.803
  607                       23.29       0.00       0.00       2.46      17.57       1.12      18.69        0.40     0.16   0.803
  608                       23.29       0.00       0.00       2.46      17.57       1.12      18.69        0.51     0.21   0.803
  609                       23.29       0.00       0.00       2.46      17.57       1.12      18.69        0.52     0.21   0.803
  610                       23.29       0.00       0.00       2.46      17.57       1.12      18.69        0.40     0.16   0.803
  611                       23.29       0.00       0.00       2.46      17.57       1.12      18.69        0.40     0.16   0.803
  612                       23.29       0.00       0.00       2.46      17.57       1.12      18.69        0.43     0.18   0.803
  613                       23.29       0.00       0.00       2.46      17.57       1.12      18.69        0.34     0.14   0.803
  614                       23.29       0.00       0.00       2.46      17.57       1.12      18.69        0.54     0.22   0.803
  615                       23.29       0.00       0.00       2.46      17.57       1.12      18.69        0.67     0.27   0.803
  616                       23.29       0.00       0.00       2.46      17.57       1.12      18.69        0.34     0.14   0.803
  617                       23.29       0.00       0.00       2.46      17.57       1.12      18.69        0.33     0.14   0.803
  618                       23.29       0.00       0.00       2.46      17.57       1.12      18.69        0.34     0.14   0.803
  619                       23.29       0.00       0.00       2.46      17.57       1.12      18.69        0.34     0.14   0.803
  620                       23.29       0.00       0.00       2.46      17.57       1.12      18.69        0.33     0.14   0.803
  621                       23.29       0.00       0.00       2.46      17.57       1.12      18.69        0.34     0.14   0.803
  622                       23.29       0.00       0.00       2.46      17.57       1.12      18.69        0.33     0.14   0.803
  623                       23.29       0.00       0.00       2.46      17.57       1.12      18.69        0.34     0.14   0.803
  624                       23.29       0.00       0.00       2.46      17.57       1.12      18.69        0.34     0.14   0.803
  625                       23.29       0.00       0.00       2.46      17.57       1.12      18.69        0.34     0.14   0.803
  626                       23.29       0.00       0.00       2.46      17.57       1.12      18.69        0.34     0.14   0.803
  627                       23.29       0.00       0.00       2.46      17.57       1.12      18.69        0.34     0.14   0.803
  628                       23.29       0.00       0.00       2.46      17.57       1.12      18.69        0.34     0.14   0.803
  629                       23.29       0.00       0.00       2.46      17.57       1.12      18.69        0.35     0.14   0.803
  630                       23.29       0.00       0.00       2.46      17.57       1.12      18.69        0.33     0.13   0.803
  631                       23.29       0.00       0.00       2.46      17.57       1.12      18.69        0.34     0.14   0.803
  632                       23.29       0.00       0.00       2.46      17.57       1.12      18.69        0.34     0.14   0.803
  633                       23.29       0.00       0.00       2.46      17.57       1.12      18.69        0.36     0.15   0.803
  634                       23.29       0.00       0.00       2.46      17.57       1.12      18.69        0.33     0.14   0.803
  635                       23.29       0.00       0.00       2.46      17.57       1.12      18.69        0.33     0.14   0.803
  636                       23.29       0.00       0.00       2.46      17.57       1.12      18.69        0.32     0.13   0.803
  637                       23.29       0.00       0.00       2.46      17.57       1.12      18.69        0.36     0.15   0.803
  638                       23.29       0.00       0.00       2.46      17.57       1.12      18.69        0.54     0.22   0.803
  639                       23.29       0.00       0.00       2.46      17.57       1.12      18.69        0.42     0.17   0.803
  640                       23.29       0.00       0.00       2.46      17.57       1.12      18.69        0.34     0.14   0.803
  641                       23.29       0.00       0.00       2.46      17.57       1.12      18.69        0.59     0.24   0.803
  642                       23.29       0.00       0.00       2.46      17.57       1.12      18.69        0.33     0.13   0.803
  643                       23.29       0.00       0.00       2.46      17.57       1.12      18.69        0.33     0.14   0.803
  644                       23.29       0.00       0.00       2.46      17.57       1.12      18.69        0.33     0.14   0.803
  645                       23.29       0.00       0.00       2.46      17.57       1.12      18.69        0.33     0.13   0.803
  646                       23.29       0.00       0.00       2.46      17.57       1.12      18.69        0.33     0.13   0.803
  647                       23.29       0.00       0.00       2.46      17.57       1.12      18.69        0.33     0.13   0.803
  648                       23.29       0.00       0.00       2.46      17.57       1.12      18.69        0.33     0.13   0.803
  649                       23.29       0.00       0.00       2.46      17.57       1.12      18.69        0.33     0.13   0.803
  650                       23.29       0.00       0.00       2.46      17.57       1.12      18.69        0.32     0.13   0.803
  651                       23.29       0.00       0.00       2.46      17.57       1.12      18.69        0.33     0.13   0.803
  652                       23.29       0.00       0.00       2.46      17.57       1.12      18.69        0.33     0.13   0.803
  653                       23.29       0.00       0.00       2.46      17.57       1.12      18.69        0.33     0.13   0.803
  654                       23.29       0.00       0.00       2.46      17.57       1.12      18.69        0.33     0.13   0.803
  655                       23.29       0.00       0.00       2.46      17.57       1.12      18.69        0.33     0.13   0.803
  656                       23.29       0.00       0.00       2.46      17.57       1.12      18.69        0.33     0.13   0.803
  657                       23.29       0.00       0.00       2.46      17.57       1.12      18.69        0.33     0.13   0.803
  658                       23.29       0.00       0.00       2.46      17.57       1.12      18.69        0.33     0.13   0.803
  659                       23.29       0.00       0.00       2.46      17.57       1.12      18.69        0.33     0.13   0.803
  660                       23.29       0.00       0.00       2.46      17.57       1.12      18.69        0.33     0.13   0.803
  661                       23.29       0.00       0.00       2.46      17.57       1.12      18.69        0.33     0.14   0.803
  662                       23.29       0.00       0.00       2.46      17.57       1.12      18.69        0.50     0.20   0.803
  663                       23.29       0.00       0.00       2.46      17.57       1.12      18.69        0.33     0.14   0.803
  664                       23.29       0.00       0.00       2.46      17.57       1.12      18.69        1.57     0.64   0.803
  665                       23.29       0.00       0.00       2.46      17.57       1.12      18.69        1.42     0.58   0.803
  666                       23.29       0.00       0.00       2.46      17.57       1.12      18.69        1.12     0.46   0.803
  667                       23.29       0.00       0.00       2.46      17.57       1.12      18.69        0.60     0.24   0.803
  668                       23.29       0.00       0.00       2.46      17.57       1.12      18.69        0.49     0.20   0.803
  669                       23.29       0.00       0.00       2.46      17.57       1.12      18.69        0.50     0.20   0.803
  670                       23.29       0.00       0.00       2.46      17.57       1.12      18.69        0.49     0.20   0.803
  671                       23.29       0.00       0.00       2.46      17.57       1.12      18.69        0.49     0.20   0.803
  672                       23.29       0.00       0.00       2.46      17.57       1.12      18.69        0.75     0.30   0.803
  673                       23.29       0.00       0.00       2.46      17.57       1.12      18.69        0.64     0.26   0.803
  674                       23.29       0.00       0.00       2.46      17.57       1.12      18.69        0.93     0.38   0.803
  675                       23.29       0.00       0.00       2.46      17.57       1.12      18.69        0.88     0.36   0.803
  676                       23.29       0.00       0.00       2.46      17.57       1.12      18.69        0.85     0.35   0.803
  677                       23.29       0.00       0.00       2.46      17.57       1.12      18.69        0.75     0.30   0.803
  678                       23.29       0.00       0.00       2.46      17.57       1.12      18.69        0.77     0.31   0.803
  679                       23.29       0.00       0.00       2.46      17.57       1.12      18.69        0.66     0.27   0.803
  680                       23.29       0.00       0.00       2.46      17.57       1.12      18.69        0.28     0.11   0.803
  681                       23.29       0.00       0.00       2.46      17.57       1.12      18.69        0.50     0.21   0.803
  682                       23.29       0.00       0.00       2.46      17.57       1.12      18.69        0.41     0.17   0.803
  683                       23.29       0.00       0.00       2.46      17.57       1.12      18.69        0.41     0.17   0.803
  684                       23.29       0.00       0.00       2.46      17.57       1.12      18.69        0.66     0.27   0.803
  685                       23.29       0.00       0.00       2.46      17.57       1.12      18.69        0.63     0.26   0.803
  686                       23.29       0.00       0.00       2.46      17.57       1.12      18.69        0.80     0.32   0.803
  687                       23.29       0.00       0.00       9.86       4.43       2.50       6.93        1.25     0.44   0.297
  688                       23.29       0.00       0.00       2.46      17.57       1.12      18.69        0.37     0.15   0.803
  689                       23.29       0.00       0.00       2.46      17.57       1.12      18.69        0.35     0.14   0.803
  690                       23.29       0.00       0.00       2.46      17.57       1.12      18.69        0.87     0.35   0.803
  691                       23.29       0.00       0.00       2.46      17.57       1.12      18.69        1.11     0.45   0.803
  692                       23.29       0.00       0.00       2.46      17.57       1.12      18.69        0.62     0.25   0.803
  693                       23.29       0.00       0.00       2.46      17.57       1.12      18.69        0.63     0.26   0.803
  694                       23.29       0.00       0.00       2.46      17.57       1.12      18.69        1.14     0.46   0.803
  695                       23.29       0.00       0.00       2.46      17.57       1.12      18.69        0.25     0.10   0.803
  696                       23.29       0.00       0.00       2.46      17.57       1.12      18.69        0.34     0.14   0.803
  697                       23.29       0.00       0.00       2.46      17.57       1.12      18.69        0.40     0.16   0.803
  698                       23.29       0.00       0.00       2.46      17.57       1.12      18.69        0.69     0.28   0.803
  699                       23.29       0.00       0.00       2.46      17.57       1.12      18.69        0.54     0.22   0.803
  700                       23.29       0.00       0.00       2.46      17.57       1.12      18.69        0.68     0.28   0.803
  701                       23.29       0.00       0.00       2.46      17.57       1.12      18.69        0.51     0.21   0.803
  702                       23.29       0.00       0.00       2.46      17.57       1.12      18.69        0.31     0.13   0.803
  703                       23.29       0.00       0.00       2.46      17.57       1.12      18.69        0.49     0.20   0.803
  704                       23.29       0.00       0.00       2.46      17.57       1.12      18.69        0.50     0.21   0.803
  705                       23.29       0.00       0.00       2.46      17.57       1.12      18.69        0.27     0.11   0.803
  706                       23.29       0.00       0.00       2.46      17.57       1.12      18.69        0.22     0.09   0.803
  707                       23.29       0.00       0.00       2.46      17.57       1.12      18.69        0.44     0.18   0.803
  708                       23.29       0.00       0.00       2.46      17.57       1.12      18.69        0.61     0.25   0.803
  709                       23.29       0.00       0.00       2.46      17.57       1.12      18.69        0.29     0.12   0.803
  710                       23.29       0.00       0.00       2.46      17.57       1.12      18.69        0.19     0.08   0.803
  711                       23.29       0.00       0.00       2.46      17.57       1.12      18.69        0.16     0.06   0.803
  712                       23.29       0.00       0.00       2.46      17.57       1.12      18.69        0.46     0.19   0.803
  713                       23.29       0.00       0.00       2.46      17.57       1.12      18.69        0.19     0.08   0.803
  714                       23.29       0.00       0.00       2.46      17.57       1.12      18.69        0.19     0.08   0.803
  715                       23.29       0.00       0.00       2.46      17.57       1.12      18.69        0.19     0.08   0.803
  716                       23.29       0.00       0.00       2.46      17.57       1.12      18.69        0.19     0.08   0.803
  717                       23.29       0.00       0.00       2.46      17.57       1.12      18.69        0.19     0.08   0.803
  718                       23.29       0.00       0.00       2.46      17.57       1.12      18.69        0.28     0.11   0.803
  719                       23.29       0.00       0.00       2.46      17.57       1.12      18.69        0.28     0.11   0.803
  720                       23.29       0.00       0.00       2.46      17.57       1.12      18.69        0.28     0.11   0.803
  721                       23.29       0.00       0.00       2.46      17.57       1.12      18.69        0.28     0.11   0.803
  722                       23.29       0.00       0.00       2.46      17.57       1.12      18.69        0.28     0.11   0.803
  723                       23.29       0.00       0.00       2.46      17.57       1.12      18.69        0.28     0.11   0.803
  724                       23.29       0.00       0.00       2.46      17.57       1.12      18.69        0.28     0.11   0.803
  725                       23.29       0.00       0.00       2.46      17.57       1.12      18.69        0.28     0.11   0.803
  726                       23.29       0.00       0.00       2.46      17.57       1.12      18.69        0.28     0.11   0.803
  727                       23.29       0.00       0.00       2.46      17.57       1.12      18.69        0.28     0.11   0.803
  728                       23.29       0.00       0.00       2.46      17.57       1.12      18.69        0.28     0.11   0.803
  729                       23.29       0.00       0.00       2.46      17.57       1.12      18.69        0.28     0.11   0.803
  730                       23.29       0.00       0.00       2.46      17.57       1.12      18.69        0.28     0.11   0.803
  731                       23.29       0.00       0.00       2.46      17.57       1.12      18.69        0.28     0.11   0.803
  732                       23.29       0.00       0.00       2.46      17.57       1.12      18.69        0.28     0.11   0.803
  733                       23.29       0.00       0.00       2.46      17.57       1.12      18.69        0.28     0.11   0.803
  734                       23.29       0.00       0.00       2.46      17.57       1.12      18.69        0.28     0.11   0.803
  735                       23.29       0.00       0.00       2.46      17.57       1.12      18.69        0.28     0.11   0.803
  736                       23.29       0.00       0.00       2.46      17.57       1.12      18.69        0.28     0.11   0.803
  737                       23.29       0.00       0.00       2.46      17.57       1.12      18.69        0.28     0.11   0.803
  738                       23.29       0.00       0.00       2.46      17.57       1.12      18.69        0.28     0.11   0.803
  739                       23.29       0.00       0.00       2.46      17.57       1.12      18.69        0.28     0.11   0.803
  740                       23.29       0.00       0.00       2.46      17.57       1.12      18.69        0.28     0.11   0.803
  741                       23.29       0.00       0.00       2.46      17.57       1.12      18.69        0.28     0.11   0.803
  742                       23.29       0.00       0.00       2.46      17.57       1.12      18.69        0.28     0.11   0.803
  743                       23.29       0.00       0.00       2.46      17.57       1.12      18.69        0.28     0.11   0.803
  744                       23.29       0.00       0.00       2.46      17.57       1.12      18.69        0.19     0.08   0.803
  745                       23.29       0.00       0.00       0.00      17.57       2.81      20.37        0.31     0.12   0.875
  746                       23.29       0.00       0.00       0.00      17.57       2.81      20.37        0.31     0.12   0.875
  747                       23.29       0.00       0.00       0.00      17.57       2.81      20.37        0.41     0.16   0.875
  
  
  ******************
  Node Depth Summary
  ******************
  
  ---------------------------------------------------------------------------------
                                 Average  Maximum  Maximum  Time of Max    Reported
                                   Depth    Depth      HGL   Occurrence   Max Depth
  Node                 Type       Meters   Meters   Meters  days hr:min      Meters
  ---------------------------------------------------------------------------------
  1                    JUNCTION     0.48     1.42    18.27     0  01:52        1.42
  2                    JUNCTION     0.90     2.92    18.14     0  01:59        2.92
  3                    JUNCTION     0.44     1.64    18.14     0  02:01        1.64
  4                    JUNCTION     0.51     1.93    18.10     0  02:04        1.93
  5                    JUNCTION     0.52     1.99    18.09     0  02:04        1.99
  6                    JUNCTION     0.63     2.29    18.09     0  02:02        2.29
  7                    JUNCTION     0.72     2.53    18.07     0  01:59        2.53
  8                    JUNCTION     1.10     3.47    18.07     0  01:59        3.47
  9                    JUNCTION     1.07     3.40    18.08     0  01:58        3.39
  10                   JUNCTION     0.35     1.32    18.17     0  02:01        1.32
  11                   JUNCTION     0.48     1.56    18.18     0  02:00        1.56
  12                   JUNCTION     0.37     1.34    18.19     0  01:52        1.34
  13                   JUNCTION     0.47     1.62    18.18     0  01:54        1.62
  14                   JUNCTION     0.49     1.74    18.11     0  01:58        1.74
  15                   JUNCTION     0.56     2.00    18.04     0  01:56        2.00
  16                   JUNCTION     0.59     2.13    18.02     0  01:54        2.13
  17                   JUNCTION     0.63     2.27    18.01     0  01:53        2.27
  18                   JUNCTION     0.73     2.55    18.00     0  01:48        2.55
  19                   JUNCTION     0.78     2.84    17.98     0  01:43        2.83
  20                   JUNCTION     0.84     3.07    17.97     0  01:43        3.05
  21                   JUNCTION     0.22     1.16    18.01     0  01:48        1.16
  22                   JUNCTION     0.23     1.44    18.00     0  01:36        1.43
  23                   JUNCTION     0.18     1.15    18.00     0  01:49        1.14
  24                   JUNCTION     0.27     1.48    18.04     0  01:57        1.48
  25                   JUNCTION     0.30     1.26    18.11     0  02:00        1.26
  26                   JUNCTION     0.49     1.68    18.19     0  01:52        1.68
  27                   JUNCTION     0.50     1.78    18.16     0  01:59        1.78
  28                   JUNCTION     0.56     1.83    18.16     0  02:04        1.83
  29                   JUNCTION     0.73     2.29    18.13     0  01:59        2.29
  30                   JUNCTION     0.84     2.65    18.13     0  02:00        2.65
  31                   JUNCTION     0.61     2.03    18.15     0  01:52        2.03
  32                   JUNCTION     0.62     2.27    18.06     0  01:55        2.27
  33                   JUNCTION     0.65     2.43    18.02     0  01:53        2.43
  34                   JUNCTION     0.74     2.84    17.97     0  01:50        2.84
  35                   JUNCTION     0.78     2.97    17.96     0  01:46        2.97
  36                   JUNCTION     0.30     1.57    17.96     0  01:48        1.57
  37                   JUNCTION     0.89     3.20    17.95     0  01:43        3.19
  38                   JUNCTION     1.26     4.02    17.89     0  01:48        4.01
  39                   JUNCTION     1.10     3.74    17.91     0  01:48        3.73
  40                   JUNCTION     1.05     3.64    17.91     0  01:46        3.64
  41                   JUNCTION     0.86     3.21    17.94     0  01:46        3.21
  42                   JUNCTION     0.21     1.37    18.00     0  01:42        1.31
  43                   JUNCTION     0.53     1.78    18.13     0  01:50        1.78
  44                   JUNCTION     0.86     2.87    18.07     0  01:57        2.87
  45                   JUNCTION     1.39     4.04    18.03     0  01:57        4.04
  46                   JUNCTION     1.18     3.64    18.05     0  01:59        3.64
  47                   JUNCTION     1.48     4.22    18.00     0  01:54        4.22
  48                   JUNCTION     1.55     4.37    17.95     0  01:50        4.37
  49                   JUNCTION     0.33     1.80    18.00     0  01:36        1.74
  50                   JUNCTION     0.40     1.66    18.00     0  01:41        1.64
  51                   JUNCTION     0.52     1.85    18.02     0  01:49        1.85
  52                   JUNCTION     0.51     1.99    17.92     0  01:47        1.98
  53                   JUNCTION     0.67     2.63    17.92     0  01:45        2.57
  54                   JUNCTION     0.44     1.78    17.98     0  01:45        1.68
  55                   JUNCTION     0.25     1.37    17.99     0  01:45        1.27
  56                   JUNCTION     0.37     1.25    18.05     0  01:50        1.25
  57                   JUNCTION     1.83     4.91    17.85     0  01:50        4.91
  58                   JUNCTION     1.75     4.79    17.90     0  01:50        4.78
  59                   JUNCTION     1.67     4.63    17.92     0  01:54        4.63
  60                   JUNCTION     1.31     4.08    17.88     0  01:48        4.08
  61                   JUNCTION     1.33     4.14    17.85     0  01:44        4.12
  62                   JUNCTION     1.35     4.17    17.81     0  01:47        4.15
  63                   JUNCTION     1.54     4.49    17.76     0  01:48        4.49
  64                   JUNCTION     1.57     4.54    17.75     0  01:48        4.53
  65                   JUNCTION     1.62     4.62    17.70     0  01:50        4.62
  66                   JUNCTION     1.60     4.59    17.73     0  01:50        4.58
  67                   JUNCTION     1.65     4.66    17.69     0  01:50        4.66
  68                   JUNCTION     1.68     4.69    17.66     0  01:48        4.69
  69                   JUNCTION     1.70     4.72    17.63     0  01:52        4.72
  70                   JUNCTION     1.73     4.76    17.61     0  01:50        4.76
  71                   JUNCTION     1.75     4.80    17.59     0  01:49        4.80
  72                   JUNCTION     1.25     3.98    17.52     0  01:53        3.98
  73                   JUNCTION     1.07     3.62    17.62     0  01:50        3.61
  74                   JUNCTION     0.98     3.41    17.68     0  01:50        3.41
  75                   JUNCTION     0.94     3.31    17.71     0  01:50        3.31
  76                   JUNCTION     0.87     3.20    17.86     0  01:45        3.15
  77                   JUNCTION     0.83     3.06    17.84     0  01:45        3.05
  78                   JUNCTION     0.79     2.93    17.84     0  01:45        2.93
  79                   JUNCTION     0.74     2.86    17.89     0  01:45        2.81
  80                   JUNCTION     0.70     2.76    17.92     0  01:45        2.70
  81                   JUNCTION     0.24     1.38    18.00     0  01:45        1.26
  82                   JUNCTION     0.32     1.61    18.00     0  01:45        1.58
  83                   JUNCTION     0.45     1.85    18.00     0  01:45        1.72
  84                   JUNCTION     0.55     2.13    18.00     0  01:45        1.98
  85                   JUNCTION     0.60     2.21    17.89     0  01:45        2.21
  86                   JUNCTION     0.71     2.42    17.82     0  01:46        2.40
  87                   JUNCTION     0.75     2.61    17.71     0  01:48        2.61
  88                   JUNCTION     0.84     2.89    17.65     0  01:49        2.89
  89                   JUNCTION     0.29     1.22    17.67     0  01:50        1.22
  90                   JUNCTION     0.34     1.41    17.62     0  01:52        1.41
  91                   JUNCTION     0.36     1.48    17.58     0  01:53        1.48
  92                   JUNCTION     0.45     1.86    17.50     0  01:50        1.86
  93                   JUNCTION     1.45     4.30    17.50     0  01:53        4.29
  94                   JUNCTION     1.78     4.82    17.55     0  01:50        4.82
  95                   JUNCTION     0.33     1.44    17.49     0  01:50        1.44
  96                   JUNCTION     0.37     1.54    17.47     0  01:50        1.54
  97                   JUNCTION     0.16     0.88    17.38     0  01:50        0.88
  98                   JUNCTION     0.30     1.33    17.24     0  01:50        1.33
  99                   JUNCTION     0.20     1.03    17.28     0  01:50        1.03
  100                  JUNCTION     0.34     1.52    17.75     0  01:34        1.49
  101                  JUNCTION     0.25     1.50    18.00     0  01:34        1.37
  102                  JUNCTION     0.50     1.81    18.04     0  01:44        1.81
  103                  JUNCTION     0.45     1.72    18.09     0  01:45        1.72
  104                  JUNCTION     0.49     1.81    18.09     0  01:46        1.81
  105                  JUNCTION     0.41     1.61    18.11     0  01:48        1.61
  106                  JUNCTION     0.49     1.83    18.11     0  01:47        1.83
  107                  JUNCTION     0.37     1.61    18.11     0  01:54        1.61
  108                  JUNCTION     0.34     1.51    18.11     0  01:50        1.51
  109                  JUNCTION     0.54     1.95    18.12     0  01:41        1.95
  110                  JUNCTION     0.26     1.44    18.00     0  01:31        1.44
  111                  JUNCTION     0.57     2.20    18.00     0  01:32        2.20
  112                  JUNCTION     0.67     2.53    17.97     0  01:33        2.50
  113                  JUNCTION     0.57     2.10    17.91     0  01:33        2.06
  114                  JUNCTION     0.59     2.14    17.75     0  01:38        2.13
  115                  JUNCTION     0.52     1.87    17.76     0  01:37        1.85
  116                  JUNCTION     0.15     0.91    17.53     0  01:45        0.91
  117                  JUNCTION     0.43     1.78    17.52     0  01:45        1.78
  118                  JUNCTION     0.18     0.85    17.47     0  01:43        0.85
  119                  JUNCTION     0.36     1.60    17.14     0  01:53        1.59
  120                  JUNCTION     1.88     4.91    17.35     0  01:53        4.91
  121                  JUNCTION     1.88     4.92    17.39     0  01:54        4.92
  122                  JUNCTION     1.87     4.93    17.46     0  01:53        4.93
  123                  JUNCTION     1.47     4.32    17.48     0  01:52        4.32
  124                  JUNCTION     1.91     5.04    17.78     0  01:50        5.04
  125                  JUNCTION     0.68     2.25    17.91     0  01:45        2.20
  126                  JUNCTION     0.79     2.47    17.92     0  01:45        2.40
  127                  JUNCTION     0.85     2.59    17.95     0  01:45        2.51
  128                  JUNCTION     1.06     2.98    18.03     0  01:31        2.98
  129                  JUNCTION     1.13     3.14    18.00     0  01:24        3.14
  130                  JUNCTION     1.14     3.30    18.00     0  01:24        3.09
  131                  JUNCTION     1.13     3.31    17.86     0  01:29        3.17
  132                  JUNCTION     1.12     3.36    17.76     0  01:29        3.28
  133                  JUNCTION     1.24     3.63    17.61     0  01:50        3.63
  134                  JUNCTION     1.26     3.71    17.58     0  01:50        3.71
  135                  JUNCTION     1.27     3.76    17.53     0  01:50        3.76
  136                  JUNCTION     1.28     3.81    17.47     0  01:53        3.80
  137                  JUNCTION     1.29     3.85    17.41     0  01:53        3.85
  138                  JUNCTION     1.30     3.87    17.33     0  01:50        3.87
  139                  JUNCTION     1.28     3.87    17.23     0  01:53        3.86
  140                  JUNCTION     1.89     4.85    17.10     0  01:54        4.85
  141                  JUNCTION     1.87     4.78    16.97     0  01:54        4.77
  142                  JUNCTION     0.48     1.59    17.49     0  01:34        1.59
  143                  JUNCTION     0.56     2.33    17.45     0  01:46        2.33
  144                  JUNCTION     0.03     0.25    16.37     0  01:47        0.25
  145                  JUNCTION     0.54     2.00    17.40     0  01:39        2.00
  146                  JUNCTION     0.70     2.43    17.39     0  01:42        2.43
  147                  JUNCTION     0.30     1.90    18.00     0  01:32        1.35
  148                  JUNCTION     0.61     2.33    17.28     0  01:43        2.33
  149                  JUNCTION     0.26     1.91    18.00     0  01:32        1.46
  150                  JUNCTION     0.48     2.19    18.00     0  01:33        2.09
  151                  JUNCTION     0.68     2.48    18.01     0  01:28        2.48
  152                  JUNCTION     0.78     2.43    18.08     0  01:45        2.43
  153                  JUNCTION     0.57     2.04    18.11     0  01:53        2.04
  154                  JUNCTION     0.84     2.41    18.13     0  01:55        2.41
  155                  JUNCTION     0.88     2.37    18.16     0  02:02        2.37
  156                  JUNCTION     0.71     1.92    18.19     0  01:59        1.92
  157                  JUNCTION     0.44     1.54    18.16     0  01:59        1.54
  158                  JUNCTION     0.46     1.65    18.15     0  01:57        1.65
  159                  JUNCTION     0.51     1.80    18.17     0  01:48        1.80
  160                  JUNCTION     0.62     2.00    18.17     0  01:47        2.00
  161                  JUNCTION     1.99     5.15    17.65     0  01:52        5.15
  162                  JUNCTION     2.03     5.20    17.60     0  01:53        5.20
  163                  JUNCTION     2.05     5.24    17.56     0  01:53        5.24
  164                  JUNCTION     2.08     5.28    17.51     0  01:54        5.27
  165                  JUNCTION     2.10     5.31    17.47     0  01:55        5.31
  166                  JUNCTION     2.12     5.34    17.42     0  01:55        5.34
  167                  JUNCTION     2.14     5.36    17.36     0  01:55        5.36
  168                  JUNCTION     2.15     5.38    17.30     0  01:54        5.38
  169                  JUNCTION     2.16     5.39    17.22     0  01:54        5.38
  170                  JUNCTION     2.17     5.39    17.15     0  01:54        5.39
  171                  JUNCTION     2.18     5.39    17.06     0  01:55        5.38
  172                  JUNCTION     2.19     5.38    16.98     0  01:55        5.38
  173                  JUNCTION     2.20     5.37    16.89     0  01:55        5.37
  174                  JUNCTION     2.20     5.35    16.79     0  01:55        5.35
  175                  JUNCTION     2.21     5.34    16.70     0  01:55        5.34
  176                  JUNCTION     2.22     5.32    16.60     0  01:55        5.32
  177                  JUNCTION     2.46     5.59    16.49     0  01:55        5.59
  178                  JUNCTION     0.74     2.30    17.54     0  01:31        2.30
  179                  JUNCTION     0.71     2.82    17.38     0  01:45        2.82
  180                  JUNCTION     0.03     0.24    15.71     0  01:53        0.24
  181                  JUNCTION     0.50     1.92    16.88     0  01:36        1.92
  182                  JUNCTION     0.64     2.30    16.71     0  01:44        2.30
  183                  JUNCTION     0.06     0.21    17.06     0  01:37        0.21
  184                  JUNCTION     0.44     1.65    16.16     0  01:44        1.65
  185                  JUNCTION     0.08     0.73    17.58     0  01:34        0.48
  186                  JUNCTION     0.53     2.37    17.52     0  01:31        2.13
  187                  JUNCTION     0.92     2.70    16.90     0  01:31        2.67
  188                  JUNCTION     1.10     3.46    17.86     0  01:28        3.23
  189                  JUNCTION     1.16     3.34    17.99     0  01:34        3.33
  190                  JUNCTION     1.06     2.93    18.11     0  01:47        2.93
  191                  JUNCTION     1.00     2.64    18.12     0  01:57        2.64
  192                  JUNCTION     0.48     1.77    18.16     0  02:10        1.77
  193                  JUNCTION     0.69     2.33    18.13     0  02:02        2.33
  194                  JUNCTION     1.14     3.23    18.11     0  01:58        3.23
  195                  JUNCTION     0.35     1.29    18.14     0  01:52        1.29
  196                  JUNCTION     0.50     1.80    18.18     0  01:45        1.80
  197                  JUNCTION     0.63     2.20    18.12     0  01:44        2.20
  198                  JUNCTION     1.33     3.65    18.07     0  01:50        3.65
  199                  JUNCTION     1.46     3.96    18.03     0  01:44        3.96
  200                  JUNCTION     0.61     2.08    18.12     0  01:43        2.08
  201                  JUNCTION     0.47     1.64    18.11     0  01:41        1.64
  202                  JUNCTION     0.35     1.36    18.16     0  01:38        1.36
  203                  JUNCTION     0.24     1.47    18.00     0  01:30        1.47
  204                  JUNCTION     0.35     1.98    18.00     0  01:25        1.82
  205                  JUNCTION     1.32     4.18    18.00     0  01:27        4.00
  206                  JUNCTION     1.09     3.95    17.48     0  01:29        3.89
  207                  JUNCTION     0.20     1.66    18.00     0  01:27        1.33
  208                  JUNCTION     0.09     1.15    18.00     0  01:28        0.87
  209                  JUNCTION     0.63     1.68    15.70     0  01:33        1.68
  210                  JUNCTION     0.25     1.14    17.53     0  01:32        1.14
  211                  JUNCTION     0.17     0.56    16.29     0  01:38        0.56
  212                  JUNCTION     0.63     2.22    15.35     0  01:33        2.22
  213                  JUNCTION     0.47     1.38    14.23     0  01:34        1.38
  214                  JUNCTION     0.03     0.15    16.34     0  01:41        0.15
  215                  JUNCTION     0.49     1.07    14.55     0  01:38        1.07
  216                  JUNCTION     0.02     0.16    17.01     0  01:35        0.16
  217                  JUNCTION     0.50     1.00    14.02     0  01:39        1.00
  218                  JUNCTION     0.50     1.03    13.63     0  01:33        1.03
  219                  JUNCTION     0.49     0.97    13.45     0  01:34        0.97
  220                  JUNCTION     0.56     1.12    12.88     0  01:32        1.12
  221                  JUNCTION     0.63     1.32    12.51     0  01:38        1.32
  222                  JUNCTION     0.37     1.16    14.88     0  01:31        1.15
  223                  JUNCTION     0.42     1.50    15.54     0  01:32        1.49
  224                  JUNCTION     0.42     1.55    15.89     0  01:35        1.55
  225                  JUNCTION     0.03     0.24    15.07     0  01:55        0.24
  226                  JUNCTION     0.03     0.24    14.53     0  01:57        0.24
  227                  JUNCTION     0.03     0.22    13.98     0  02:01        0.22
  228                  JUNCTION     0.62     1.31    12.45     0  01:39        1.31
  229                  JUNCTION     0.61     2.34    16.35     0  01:47        2.34
  230                  JUNCTION     0.52     2.74    16.28     0  01:23        1.86
  231                  JUNCTION     0.44     1.88    14.94     0  01:23        1.41
  232                  JUNCTION     0.66     1.40    12.39     0  01:44        1.40
  233                  JUNCTION     0.91     2.95    17.55     0  01:30        2.95
  234                  JUNCTION     0.62     2.46    16.44     0  01:30        2.46
  235                  JUNCTION     0.39     1.34    14.81     0  01:30        1.34
  236                  JUNCTION     0.65     1.40    12.33     0  01:46        1.40
  237                  JUNCTION     2.30     5.00    15.51     0  01:55        5.00
  238                  JUNCTION     1.91     4.05    14.42     0  01:54        4.04
  239                  JUNCTION     1.54     3.15    13.36     0  01:50        3.15
  240                  JUNCTION     1.43     2.70    12.26     0  01:47        2.69
  241                  JUNCTION     1.68     4.16    15.72     0  01:57        4.16
  242                  JUNCTION     0.08     0.26    16.44     0  01:30        0.26
  243                  JUNCTION     0.12     0.39    15.81     0  01:30        0.39
  244                  JUNCTION     0.00     0.00    16.65     0  00:00        0.00
  245                  JUNCTION     0.74     1.86    13.58     0  01:45        1.86
  246                  JUNCTION     1.66     4.16    15.86     0  02:00        4.16
  247                  JUNCTION     0.01     0.07    16.44     0  01:39        0.07
  248                  JUNCTION     0.80     2.99    16.48     0  01:34        2.95
  249                  JUNCTION     0.69     2.44    15.51     0  01:38        2.44
  250                  JUNCTION     1.03     2.88    14.71     0  01:45        2.87
  251                  JUNCTION     1.65     4.18    16.04     0  02:02        4.18
  252                  JUNCTION     0.13     1.06    17.43     0  01:28        0.94
  253                  JUNCTION     0.85     3.19    16.83     0  01:34        3.16
  254                  JUNCTION     1.65     4.21    16.22     0  02:04        4.21
  255                  JUNCTION     0.30     1.63    18.00     0  01:19        1.62
  256                  JUNCTION     0.87     3.28    17.18     0  01:35        3.28
  257                  JUNCTION     0.26     1.73    18.00     0  01:19        1.63
  258                  JUNCTION     1.16     3.56    15.66     0  01:46        3.56
  259                  JUNCTION     1.64     4.24    16.41     0  02:05        4.24
  260                  JUNCTION     0.16     1.68    18.00     0  01:30        1.68
  261                  JUNCTION     0.86     3.23    17.34     0  01:34        3.22
  262                  JUNCTION     0.02     0.18    17.03     0  01:42        0.18
  263                  JUNCTION     1.21     3.83    16.07     0  01:46        3.83
  264                  JUNCTION     1.63     4.28    16.59     0  02:04        4.28
  265                  JUNCTION     0.71     3.24    18.00     0  01:28        2.76
  266                  JUNCTION     0.86     3.23    17.49     0  01:35        3.23
  267                  JUNCTION     0.92     3.37    16.95     0  01:46        3.37
  268                  JUNCTION     1.25     4.02    16.39     0  01:46        4.02
  269                  JUNCTION     1.60     4.28    16.75     0  02:03        4.28
  270                  JUNCTION     1.57     4.29    16.90     0  02:03        4.29
  271                  JUNCTION     0.55     2.15    17.50     0  01:39        2.15
  272                  JUNCTION     0.13     1.23    17.50     0  01:48        1.23
  273                  JUNCTION     0.97     3.56    17.34     0  01:47        3.56
  274                  JUNCTION     1.06     3.88    17.13     0  01:46        3.86
  275                  JUNCTION     1.54     4.29    17.04     0  02:02        4.28
  276                  JUNCTION     1.48     4.25    17.15     0  02:01        4.24
  277                  JUNCTION     1.34     4.08    17.26     0  02:01        4.07
  278                  JUNCTION     1.26     3.97    17.35     0  02:01        3.97
  279                  JUNCTION     0.41     1.67    17.89     0  01:42        1.63
  280                  JUNCTION     0.43     1.79    17.81     0  01:42        1.77
  281                  JUNCTION     0.85     3.50    18.00     0  01:30        3.36
  282                  JUNCTION     0.46     2.14    17.83     0  01:41        2.14
  283                  JUNCTION     0.48     2.17    17.65     0  01:45        2.17
  284                  JUNCTION     0.11     1.05    17.58     0  01:47        1.05
  285                  JUNCTION     0.96     3.58    17.55     0  01:47        3.57
  286                  JUNCTION     0.96     3.58    17.64     0  01:47        3.58
  287                  JUNCTION     0.94     3.56    17.73     0  01:45        3.56
  288                  JUNCTION     0.91     3.51    17.81     0  01:45        3.50
  289                  JUNCTION     0.22     1.34    17.90     0  01:39        1.32
  290                  JUNCTION     0.93     3.78    17.98     0  01:36        3.74
  291                  JUNCTION     1.05     4.04    17.95     0  01:39        3.99
  292                  JUNCTION     1.08     4.08    17.76     0  01:46        4.03
  293                  JUNCTION     1.08     4.09    17.63     0  01:46        4.07
  294                  JUNCTION     0.74     3.22    18.00     0  01:35        3.22
  295                  JUNCTION     0.10     1.15    18.00     0  01:35        1.04
  296                  JUNCTION     0.79     3.32    17.99     0  01:30        3.22
  297                  JUNCTION     0.73     3.07    17.92     0  01:43        3.06
  298                  JUNCTION     0.15     1.15    18.00     0  01:33        0.77
  299                  JUNCTION     1.17     3.85    17.43     0  02:00        3.84
  300                  JUNCTION     1.09     3.69    17.47     0  02:01        3.69
  301                  JUNCTION     0.99     3.51    17.49     0  02:02        3.51
  302                  JUNCTION     0.83     3.16    17.51     0  02:01        3.16
  303                  JUNCTION     0.21     1.66    18.00     0  01:32        1.66
  304                  JUNCTION     0.46     2.31    17.97     0  01:43        2.31
  305                  JUNCTION     0.35     1.93    18.01     0  01:40        1.93
  306                  JUNCTION     0.57     2.73    18.00     0  01:38        2.73
  307                  JUNCTION     0.40     1.52    18.19     0  01:49        1.52
  308                  JUNCTION     0.61     2.22    18.15     0  01:56        2.22
  309                  JUNCTION     0.33     1.31    18.16     0  02:00        1.31
  310                  JUNCTION     0.41     1.51    18.18     0  01:47        1.51
  311                  JUNCTION     0.37     1.41    18.21     0  01:47        1.41
  312                  JUNCTION     0.26     1.27    18.12     0  01:57        1.27
  313                  JUNCTION     0.32     1.30    18.15     0  01:49        1.30
  314                  JUNCTION     0.34     1.37    18.17     0  01:47        1.37
  315                  JUNCTION     0.32     1.33    18.13     0  01:47        1.33
  316                  JUNCTION     0.36     1.46    18.13     0  01:44        1.46
  317                  JUNCTION     0.36     1.50    18.30     0  01:42        1.50
  318                  JUNCTION     0.15     1.15    18.00     0  01:34        1.03
  319                  JUNCTION     0.13     1.15    18.00     0  01:33        1.15
  320                  JUNCTION     0.15     0.93    17.78     0  01:30        0.93
  321                  JUNCTION     0.12     0.69    17.36     0  01:49        0.58
  322                  JUNCTION     0.15     0.89    17.69     0  01:48        0.79
  323                  JUNCTION     0.06     1.15    18.00     0  01:44        0.62
  324                  JUNCTION     0.14     0.96    17.76     0  01:43        0.74
  325                  JUNCTION     0.14     1.07    17.87     0  01:42        0.78
  326                  JUNCTION     0.14     1.05    17.85     0  01:42        0.80
  327                  JUNCTION     0.18     1.01    17.68     0  01:41        0.95
  328                  JUNCTION     0.18     1.33    18.00     0  01:41        0.96
  329                  JUNCTION     0.09     1.15    18.00     0  01:41        0.81
  330                  JUNCTION     0.22     1.07    17.74     0  01:48        1.05
  331                  JUNCTION     0.10     1.15    18.00     0  01:40        0.86
  332                  JUNCTION     0.16     0.95    17.75     0  01:47        0.94
  333                  JUNCTION     0.10     1.11    17.96     0  01:40        0.89
  334                  JUNCTION     0.11     1.15    18.00     0  01:40        0.90
  335                  JUNCTION     0.17     1.06    17.86     0  01:39        1.01
  336                  JUNCTION     0.21     1.15    18.00     0  01:44        1.11
  337                  JUNCTION     0.42     1.48    18.15     0  01:49        1.48
  338                  JUNCTION     0.24     1.25    18.10     0  02:05        1.25
  339                  JUNCTION     0.32     1.28    18.13     0  02:05        1.28
  340                  JUNCTION     0.37     1.33    18.18     0  02:00        1.33
  341                  JUNCTION     0.29     1.31    18.16     0  02:10        1.31
  342                  JUNCTION     0.20     1.16    18.01     0  01:39        1.16
  343                  JUNCTION     0.15     1.16    18.01     0  01:48        1.16
  344                  JUNCTION     0.04     0.33    17.18     0  02:15        0.33
  345                  JUNCTION     0.10     1.16    18.01     0  01:38        1.16
  346                  JUNCTION     0.04     1.15    18.00     0  01:46        1.15
  348                  JUNCTION     0.00     0.00    16.85     0  00:00        0.00
  349                  JUNCTION     0.11     1.16    18.01     0  01:29        1.16
  350                  JUNCTION     0.32     1.31    18.16     0  02:09        1.31
  z_0512_001_101       JUNCTION     0.00     0.00    16.85     0  00:00        0.00
  z_0512_001_142       JUNCTION     0.16     1.15    18.00     0  01:42        1.09
  z_0512_001_150       JUNCTION     0.18     1.15    18.00     0  01:28        1.15
  347                  OUTFALL      1.05     1.73    11.12     0  01:47        1.73
  
  
  *******************
  Node Inflow Summary
  *******************
  
  -------------------------------------------------------------------------------------------------
                                  Maximum  Maximum                  Lateral       Total        Flow
                                  Lateral    Total  Time of Max      Inflow      Inflow     Balance
                                   Inflow   Inflow   Occurrence      Volume      Volume       Error
  Node                 Type           CMS      CMS  days hr:min    10^6 ltr    10^6 ltr     Percent
  -------------------------------------------------------------------------------------------------
  1                    JUNCTION     0.139    0.139     0  01:30        0.34       0.341       1.017
  2                    JUNCTION     0.133    0.577     0  01:29       0.327        1.38       1.245
  3                    JUNCTION     0.114    0.273     0  01:32        0.28        0.65       0.239
  4                    JUNCTION     0.000    0.374     0  01:30           0       0.958      -0.307
  5                    JUNCTION     0.000    0.373     0  01:30           0        0.99       0.906
  6                    JUNCTION     0.138    0.683     0  01:30       0.338        1.66      -0.468
  7                    JUNCTION     0.090    0.912     0  01:30       0.221        2.18       1.767
  8                    JUNCTION     0.000    0.702     0  01:27           0        2.07       0.057
  9                    JUNCTION     0.296    0.719     0  01:27       0.727        2.04      -0.574
  10                   JUNCTION     0.111    0.183     0  01:30       0.273       0.409       1.933
  11                   JUNCTION     0.139    0.181     0  01:30        0.34       0.516       0.510
  12                   JUNCTION     0.260    0.260     0  01:30       0.639       0.674       0.804
  13                   JUNCTION     0.161    0.260     0  01:26       0.394       0.685      -0.169
  14                   JUNCTION     0.000    0.224     0  01:26           0       0.763       0.802
  15                   JUNCTION     0.151    0.340     0  01:26        0.37         1.1      -0.219
  16                   JUNCTION     0.000    0.313     0  01:27           0        1.05       0.104
  17                   JUNCTION     0.000    0.275     0  01:27           0       0.889       0.122
  18                   JUNCTION     0.140    0.409     0  01:29       0.344        1.22      -0.111
  19                   JUNCTION     0.000    0.330     0  01:26           0        1.19       0.335
  20                   JUNCTION     0.076    0.399     0  01:26       0.187        1.37      -0.347
  21                   JUNCTION     0.132    0.132     0  01:32       0.323       0.361       1.801
  22                   JUNCTION     0.000    0.107     0  01:36           0       0.102       0.038
  23                   JUNCTION     0.000    0.102     0  01:35           0       0.158       2.473
  24                   JUNCTION     0.000    0.118     0  01:32           0       0.065       5.438
  25                   JUNCTION     0.145    0.173     0  01:26       0.357       0.382       3.257
  26                   JUNCTION     0.189    0.189     0  01:30       0.464       0.468       0.197
  27                   JUNCTION     0.166    0.319     0  01:25       0.408       0.715       1.131
  28                   JUNCTION     0.000    0.109     0  01:17           0       0.347       0.640
  29                   JUNCTION     0.179    0.255     0  01:30       0.439        0.78       0.862
  30                   JUNCTION     0.000    0.589     0  01:27           0        1.34      -0.849
  31                   JUNCTION     0.268    0.398     0  01:30       0.658        1.08       1.023
  32                   JUNCTION     0.000    0.415     0  01:26           0        1.22      -0.553
  33                   JUNCTION     0.143    0.544     0  01:29       0.351        1.64       0.883
  34                   JUNCTION     0.000    0.574     0  01:30           0        1.77      -0.692
  35                   JUNCTION     0.000    0.581     0  01:31           0        1.89       0.109
  36                   JUNCTION     0.000    0.134     0  01:35           0       0.311      -0.167
  37                   JUNCTION     0.076    0.468     0  01:26       0.187        1.62       1.341
  38                   JUNCTION     0.144    1.202     0  01:26       0.353        5.38      -0.425
  39                   JUNCTION     0.257    0.734     0  01:26       0.632        3.43       0.148
  40                   JUNCTION     0.154    0.793     0  01:27       0.378        2.76      -0.466
  41                   JUNCTION     0.000    0.693     0  01:28           0        1.99       1.037
  42                   JUNCTION     0.000    0.122     0  01:38           0      0.0712      -2.193
  43                   JUNCTION     0.358    0.358     0  01:30       0.879       0.901       1.315
  44                   JUNCTION     0.000    0.571     0  01:28           0        1.46       1.354
  45                   JUNCTION     0.000    1.423     0  01:30           0        4.43      -1.000
  46                   JUNCTION     0.114    0.743     0  01:26        0.28        2.33       0.854
  47                   JUNCTION     0.000    1.631     0  01:30           0        5.91      -0.108
  48                   JUNCTION     0.000    1.644     0  01:27           0        6.66       0.298
  49                   JUNCTION     0.000    0.169     0  01:36           0       0.147      -1.246
  50                   JUNCTION     0.221    0.329     0  01:30       0.542       0.677       3.282
  51                   JUNCTION     0.395    0.476     0  01:30        0.97        1.14      -0.203
  52                   JUNCTION     0.000    0.311     0  01:29           0       0.876       0.870
  53                   JUNCTION     0.355    0.703     0  01:30       0.871        1.78      -0.439
  54                   JUNCTION     0.119    0.286     0  01:25       0.292       0.439       1.389
  55                   JUNCTION     0.000    0.146     0  01:26           0      0.0866       1.079
  56                   JUNCTION     0.510    0.510     0  01:30        1.25        1.25       0.347
  57                   JUNCTION     0.000    2.087     0  01:34           0        8.79       0.135
  58                   JUNCTION     0.201    1.853     0  01:33       0.494        7.65      -0.057
  59                   JUNCTION     0.000    1.583     0  01:26           0        6.71      -0.310
  60                   JUNCTION     0.244    1.899     0  01:25       0.598        7.72      -0.150
  61                   JUNCTION     0.114    2.048     0  01:25        0.28        8.33      -0.046
  62                   JUNCTION     0.159    2.172     0  01:25       0.391        8.96       0.275
  63                   JUNCTION     0.141    2.171     0  01:25       0.346        9.34      -0.300
  64                   JUNCTION     0.279    2.236     0  01:24       0.684        10.1       0.001
  65                   JUNCTION     0.138    2.165     0  01:23       0.338          11       0.037
  66                   JUNCTION     0.139    2.233     0  01:24        0.34        10.6      -0.018
  67                   JUNCTION     0.114    2.289     0  01:23        0.28        11.9      -0.047
  68                   JUNCTION     0.114    2.188     0  01:23        0.28        12.2      -0.004
  69                   JUNCTION     0.000    2.169     0  01:41           0        12.5       0.010
  70                   JUNCTION     0.000    2.173     0  01:42           0        12.9      -0.022
  71                   JUNCTION     0.114    2.243     0  01:42        0.28        13.4      -0.011
  72                   JUNCTION     0.136    0.731     0  01:25       0.333        3.53      -0.383
  73                   JUNCTION     0.183    0.744     0  01:26       0.451        3.21       0.832
  74                   JUNCTION     0.000    0.671     0  01:37           0        2.76      -0.002
  75                   JUNCTION     0.000    0.722     0  01:36           0        2.76      -0.000
  76                   JUNCTION     0.000    0.872     0  01:36           0        2.77      -0.128
  77                   JUNCTION     0.136    0.841     0  01:29       0.335        2.73      -0.198
  78                   JUNCTION     0.091    0.851     0  01:35       0.224        2.31      -0.387
  79                   JUNCTION     0.000    0.706     0  01:30           0        1.97      -0.242
  80                   JUNCTION     0.000    0.752     0  01:30           0        1.88      -0.189
  81                   JUNCTION     0.000    0.088     0  01:27           0       0.113       3.249
  82                   JUNCTION     0.000    0.125     0  01:27           0        0.17      -0.231
  83                   JUNCTION     0.132    0.212     0  01:30       0.325       0.475       0.004
  84                   JUNCTION     0.126    0.225     0  01:30       0.308        0.65      -0.098
  85                   JUNCTION     0.000    0.168     0  01:27           0       0.566      -0.284
  86                   JUNCTION     0.323    0.414     0  01:28       0.793        1.26       0.240
  87                   JUNCTION     0.200    0.571     0  01:29       0.492        1.72       0.505
  88                   JUNCTION     0.000    0.543     0  01:29           0        1.73       0.608
  89                   JUNCTION     0.308    0.308     0  01:30       0.755       0.768       0.490
  90                   JUNCTION     0.119    0.369     0  01:30       0.306        1.04      -0.016
  91                   JUNCTION     0.123    0.490     0  01:30       0.303        1.35       0.942
  92                   JUNCTION     0.239    0.723     0  01:30       0.587         1.9      -0.022
  93                   JUNCTION     0.312    1.398     0  01:25       0.766        6.19      -0.307
  94                   JUNCTION     0.125    2.330     0  01:42       0.307          14       0.032
  95                   JUNCTION     0.457    0.606     0  01:30        1.12        1.55      -0.276
  96                   JUNCTION     0.226    0.822     0  01:30       0.555        2.12       2.349
  97                   JUNCTION     0.000    0.193     0  01:30           0       0.495       0.444
  98                   JUNCTION     0.065    0.747     0  01:30       0.159        2.03      -0.383
  99                   JUNCTION     0.138    0.310     0  01:30       0.338       0.886       0.128
  100                  JUNCTION     0.133    0.221     0  01:30       0.327       0.581       0.120
  101                  JUNCTION     0.000    0.137     0  01:34           0       0.251      -0.585
  102                  JUNCTION     0.088    0.400     0  01:34       0.215        1.62      -0.433
  103                  JUNCTION     0.140    0.297     0  01:25       0.344       0.908       0.249
  104                  JUNCTION     0.000    0.273     0  01:23           0       0.711      -0.965
  105                  JUNCTION     0.000    0.216     0  01:25           0       0.374       0.048
  106                  JUNCTION     0.116    0.229     0  01:26       0.284       0.583      -0.601
  107                  JUNCTION     0.000    0.190     0  01:26           0       0.141       1.448
  108                  JUNCTION     0.000    0.079     0  01:27           0      0.0942      -0.037
  109                  JUNCTION     0.270    0.405     0  01:27       0.664       0.931      -0.095
  110                  JUNCTION     0.000    0.246     0  01:29           0       0.298      -1.555
  111                  JUNCTION     0.147    0.289     0  01:31       0.361       0.942       0.797
  112                  JUNCTION     0.442    0.500     0  01:29        1.08        1.81       0.152
  113                  JUNCTION     0.076    0.310     0  01:28       0.187       0.905      -0.396
  114                  JUNCTION     0.000    0.221     0  01:28           0       0.733      -0.234
  115                  JUNCTION     0.114    0.410     0  01:23        0.28        1.67      -0.064
  116                  JUNCTION     0.000    0.126     0  01:33           0       0.195      -0.220
  117                  JUNCTION     0.000    0.236     0  01:31           0       0.552      -1.069
  118                  JUNCTION     0.000    0.089     0  01:29           0       0.125       0.896
  119                  JUNCTION     0.000    0.735     0  01:31           0        2.12       2.768
  120                  JUNCTION     0.000    3.274     0  01:35           0        22.6       0.034
  121                  JUNCTION     0.000    3.455     0  01:35           0        22.6      -0.147
  122                  JUNCTION     0.000    3.336     0  01:40           0        20.5      -0.046
  123                  JUNCTION     0.159    1.440     0  01:26       0.408        6.62       0.330
  124                  JUNCTION     0.389    1.933     0  01:25       0.955        9.86       0.013
  125                  JUNCTION     0.000    0.302     0  01:24           0       0.494       1.431
  126                  JUNCTION     0.000    0.303     0  01:24           0       0.631      -0.083
  127                  JUNCTION     0.000    0.304     0  01:24           0       0.709       0.059
  128                  JUNCTION     0.754    0.754     0  01:30        1.85        2.12       0.049
  129                  JUNCTION     0.251    0.602     0  01:23       0.617        2.01       0.018
  130                  JUNCTION     0.154    0.674     0  01:24       0.378        2.18       0.045
  131                  JUNCTION     0.000    0.597     0  01:24           0        2.09       0.051
  132                  JUNCTION     0.139    0.638     0  01:27       0.342        2.38       0.173
  133                  JUNCTION     0.000    0.955     0  01:30           0        4.03      -0.470
  134                  JUNCTION     0.139    0.968     0  01:32        0.34         4.4       0.004
  135                  JUNCTION     0.114    0.975     0  01:33        0.28        4.69       0.038
  136                  JUNCTION     0.000    0.890     0  01:35           0        4.69       0.027
  137                  JUNCTION     0.136    0.910     0  01:36       0.335        5.03       0.041
  138                  JUNCTION     0.212    1.047     0  01:24        0.52        5.56       0.036
  139                  JUNCTION     0.152    1.141     0  01:24       0.372        5.93       0.312
  140                  JUNCTION     0.136    4.075     0  01:24       0.333        28.8      -0.007
  141                  JUNCTION     0.221    4.689     0  01:34       0.542        31.5       0.279
  142                  JUNCTION     0.114    0.170     0  01:27        0.28       0.372       1.997
  143                  JUNCTION     0.000    0.139     0  01:35           0       0.516      -1.042
  144                  JUNCTION     0.000    0.087     0  01:45           0       0.107      -0.153
  145                  JUNCTION     0.136    0.404     0  01:27       0.333        1.78      -0.120
  146                  JUNCTION     0.000    0.290     0  01:32           0         1.1      -0.511
  147                  JUNCTION     0.114    0.238     0  01:31        0.28       0.504       0.044
  148                  JUNCTION     0.000    0.576     0  01:32           0        2.17      -0.145
  149                  JUNCTION     0.000    0.324     0  01:32           0       0.531      -2.435
  150                  JUNCTION     0.161    0.312     0  01:31       0.396       0.779       0.197
  151                  JUNCTION     0.000    0.313     0  01:28           0       0.894      -0.575
  152                  JUNCTION     0.312    0.501     0  01:26       0.766        2.02       0.455
  153                  JUNCTION     0.000    0.165     0  01:26           0       0.319      -0.081
  154                  JUNCTION     0.000    0.165     0  01:26           0       0.297       0.911
  155                  JUNCTION     0.000    0.116     0  01:17           0       0.509       0.042
  156                  JUNCTION     0.176    0.284     0  01:30       0.432       0.777       0.606
  157                  JUNCTION     0.000    0.221     0  01:31           0       0.187      -1.518
  158                  JUNCTION     0.000    0.240     0  01:30           0       0.318      -1.284
  159                  JUNCTION     0.000    0.315     0  01:28           0       0.592       0.702
  160                  JUNCTION     0.259    0.360     0  01:28       0.636        1.29      -0.228
  161                  JUNCTION     0.270    2.049     0  01:38       0.662        10.5       0.057
  162                  JUNCTION     0.114    1.869     0  01:39        0.28        10.8       0.061
  163                  JUNCTION     0.155    1.731     0  01:24        0.38        11.1       0.034
  164                  JUNCTION     0.152    1.764     0  01:40       0.374        11.6       0.030
  165                  JUNCTION     0.246    1.855     0  01:40       0.604        12.3       0.034
  166                  JUNCTION     0.000    1.800     0  01:40           0        12.4       0.037
  167                  JUNCTION     0.268    1.896     0  01:41       0.658        13.1       0.033
  168                  JUNCTION     0.087    1.883     0  01:41       0.213        13.3       0.028
  169                  JUNCTION     0.134    1.889     0  01:41       0.329        13.7       0.033
  170                  JUNCTION     0.000    1.823     0  01:42           0        13.7       0.035
[...]
  77                          2.12      2.12      2.13      0.16         0.18
  197                         2.05      2.05      2.09      0.01         0.01
  465                         0.01      0.01      4.56      0.01         0.01
  468                         0.16      0.16      4.49      0.01         0.01
  466                         0.26      0.26      4.52      0.01         0.01
  219                         1.20      1.20      1.25      0.01         0.01
  218                         0.50      0.50      0.70      0.01         0.01
  274                         0.46      0.46      0.54      0.01         0.01
  230                         0.95      0.95      1.42      0.07         0.07
  430                         0.88      0.88      4.49      0.01         0.01
  104                         1.30      1.30      1.57      0.01         0.01
  429                         0.73      0.73      4.61      0.01         0.01
  352                         0.68      0.68      4.60      0.01         0.01
  241                         0.93      0.93      1.16      0.01         0.01
  8                           1.12      1.12      1.26      0.04         0.06
  357                         0.54      0.54      4.57      0.01         0.01
  9                           1.19      1.19      1.22      0.10         0.12
  14                          0.94      0.94      1.17      0.01         0.01
  382                         0.75      0.75      0.93      0.01         0.01
  381                         0.25      0.25      4.53      0.01         0.01
  12                          1.30      1.30      1.46      0.05         0.03
  433                         0.63      0.63      4.57      0.01         0.01
  102                         1.80      2.09      1.81      1.46         1.10
  60                          1.54      1.54      1.64      0.04         0.05
  525                         0.01      0.01      4.27      0.01         0.01
  504                         0.01      0.01      4.28      0.01         0.01
  322                         1.50      1.50      1.57      0.01         0.01
  340                         1.00      1.00      1.04      0.25         0.23
  315                         1.68      1.68      1.70      0.01         0.01
  255                         0.51      0.51      0.71      0.01         0.01
  403                         0.01      0.01      4.30      0.01         0.01
  337                         1.46      1.46      1.62      0.01         0.01
  38                          1.79      1.90      1.79      1.04         0.78
  76                          2.11      2.11      2.12      0.16         0.17
  400                         0.01      0.01      4.16      0.01         0.01
  198                         1.99      1.99      2.05      0.01         0.01
  476                         0.50      0.50      0.80      0.01         0.01
  220                         1.14      1.14      1.20      0.01         0.01
  481                         0.30      0.30      4.46      0.01         0.01
  385                         1.06      1.06      4.50      0.01         0.01
  279                         1.11      1.11      1.15      0.02         0.01
  240                         0.93      0.93      1.12      0.01         0.01
  353                         0.77      0.77      4.60      0.01         0.01
  239                         0.93      0.93      1.08      0.01         0.01
  10                          1.08      1.08      1.19      0.04         0.01
  355                         0.75      0.76      4.51      0.02         0.01
  11                          1.07      1.07      1.29      0.01         0.01
  69                          1.37      1.37      1.54      0.01         0.01
  61                          1.40      1.40      1.54      0.16         0.15
  103                         2.05      2.05      2.09      1.12         1.05
  522                         0.01      0.01      4.33      0.01         0.01
  323                         1.46      1.46      1.50      0.01         0.01
  338                         0.96      0.99      1.00      0.40         0.32
  314                         1.66      1.66      1.68      0.01         0.01
  256                         0.52      0.52      0.75      0.01         0.01
  520                         0.01      0.01      4.50      0.01         0.01
  401                         0.01      0.01      4.50      0.01         0.01
  37                          1.90      1.94      1.90      0.87         0.76
  336                         1.43      1.48      1.46      0.33         0.20
  75                          2.09      2.09      2.11      0.08         0.08
  398                         0.01      0.01      4.19      0.01         0.01
  199                         1.93      1.93      1.99      0.01         0.01
  229                         1.00      1.00      1.14      0.01         0.01
  221                         0.59      0.59      0.83      0.01         0.01
  238                         0.91      0.91      1.08      0.01         0.01
  354                         0.77      0.77      4.56      0.01         0.01
  388                         0.83      0.83      4.58      0.01         0.01
  384                         0.88      0.88      1.14      0.01         0.01
  356                         0.76      0.76      4.61      0.01         0.01
  237                         1.13      1.13      1.29      0.01         0.01
  67                          1.27      1.27      1.37      0.01         0.01
  431                         1.16      1.16      1.61      0.01         0.01
  63                          1.91      1.91      2.05      0.07         0.08
  62                          1.86      1.86      1.98      0.01         0.01
  521                         0.01      0.01      4.36      0.01         0.01
  503                         0.05      0.05      4.31      0.01         0.01
  324                         1.38      1.38      1.46      0.01         0.02
  523                         0.01      0.01      4.56      0.01         0.01
  506                         0.01      0.01      4.30      0.01         0.01
  312                         1.64      1.64      1.66      0.01         0.01
  258                         0.55      0.55      0.73      0.01         0.01
  518                         0.15      0.15      4.55      0.01         0.01
  399                         0.01      0.01      4.55      0.01         0.01
  36                          1.93      1.96      1.94      0.71         0.63
  335                         1.47      1.63      1.48      0.96         0.71
  74                          2.08      2.08      2.09      0.11         0.11
  396                         0.01      0.01      4.20      0.01         0.01
  222                         1.87      1.87      1.93      0.01         0.01
  228                         0.75      0.75      0.99      0.02         0.01
  236                         1.13      1.13      1.27      0.01         0.01
  66                          1.45      1.45      1.80      0.01         0.01
  65                          1.40      1.40      1.82      0.01         0.01
  64                          1.78      1.80      1.91      0.18         0.12
  517                         0.18      0.18      4.41      0.01         0.01
  325                         1.35      1.35      1.38      0.06         0.03
  313                         1.62      1.62      1.64      0.01         0.01
  259                         0.55      0.55      0.77      0.01         0.01
  516                         0.18      0.18      4.59      0.01         0.01
  397                         0.01      0.01      4.59      0.01         0.01
  34                          1.95      1.95      1.96      0.46         0.43
  334                         1.48      1.48      1.63      0.01         0.01
  73                          2.06      2.06      2.08      0.05         0.04
  394                         0.01      0.01      4.21      0.01         0.01
  225                         1.81      1.81      1.87      0.01         0.01
  480                         0.01      0.01      4.47      0.01         0.01
  389                         0.83      0.83      4.53      0.01         0.01
  234                         1.22      1.22      1.45      0.01         0.01
  386                         1.00      1.00      4.61      0.01         0.01
  1                           1.41      1.41      1.64      0.17         0.19
  387                         0.93      0.93      4.51      0.01         0.01
  515                         0.22      0.22      4.42      0.01         0.01
  502                         0.15      0.15      4.37      0.01         0.01
  326                         1.32      1.32      1.35      0.01         0.01
  311                         1.61      1.61      1.62      0.01         0.01
  260                         0.57      0.57      0.78      0.01         0.01
  514                         0.22      0.22      4.61      0.01         0.01
  395                         0.01      0.01      4.61      0.01         0.01
  33                          1.89      1.89      1.95      0.04         0.04
  333                         1.41      1.41      1.48      0.05         0.05
  72                          2.04      2.04      2.06      0.02         0.03
  478                         0.36      0.59      0.69      0.34         0.05
  392                         0.01      0.01      4.22      0.01         0.01
  226                         1.75      1.75      1.81      0.01         0.01
  513                         0.25      0.25      4.43      0.01         0.01
  327                         1.28      1.28      1.32      0.01         0.01
  507                         0.15      0.15      4.35      0.01         0.01
  310                         1.59      1.59      1.61      0.01         0.01
  261                         0.57      0.57      0.79      0.01         0.01
  512                         0.25      0.25      4.63      0.01         0.01
  393                         0.01      0.01      4.63      0.01         0.01
  32                          1.76      1.76      1.89      0.11         0.01
  332                         1.31      1.31      1.41      0.01         0.01
  71                          2.03      2.03      2.04      0.02         0.04
  227                         1.56      1.56      1.75      0.01         0.01
  511                         0.25      0.25      4.44      0.01         0.01
  501                         0.26      0.26      4.42      0.01         0.01
  329                         1.25      1.25      1.28      0.01         0.01
  309                         1.57      1.57      1.59      0.10         0.10
  262                         0.59      0.59      0.80      0.01         0.01
  510                         0.25      0.25      4.61      0.01         0.01
  31                          1.71      1.71      1.76      0.01         0.01
  331                         1.16      1.16      1.31      0.01         0.01
  479                         0.01      0.01      4.29      0.01         0.01
  70                          2.00      2.00      2.03      0.05         0.04
  390                         0.01      0.01      4.26      0.01         0.01
  273                         0.01      0.01      1.29      0.01         0.01
  509                         0.26      0.26      4.44      0.01         0.01
  500                         0.28      0.28      4.42      0.01         0.01
  299                         1.22      1.22      1.25      0.01         0.01
  508                         0.22      0.22      4.38      0.01         0.01
  308                         1.55      1.55      1.57      0.07         0.04
  263                         0.63      0.63      0.82      0.01         0.01
  391                         0.01      0.01      4.59      0.01         0.01
  30                          1.65      1.65      1.71      0.01         0.01
  330                         1.02      1.02      1.16      0.01         0.01
  29                          1.93      1.93      2.00      0.06         0.05
  495                         0.28      0.28      4.45      0.01         0.01
  486                         0.29      0.29      4.42      0.01         0.01
  298                         1.21      1.39      1.22      0.31         0.07
  307                         1.53      1.53      1.55      0.06         0.03
  264                         0.67      0.77      0.84      0.19         0.01
  300                         1.21      1.21      1.65      0.01         0.01
  496                         0.28      0.28      4.55      0.01         0.01
  372                         0.27      0.27      4.37      0.01         0.01
  303                         1.88      1.88      1.93      0.01         0.02
  497                         0.30      0.30      4.53      0.01         0.01
  487                         0.32      0.32      4.50      0.01         0.01
  297                         1.33      1.37      1.39      0.35         0.28
  282                         1.51      1.51      1.53      0.01         0.01
  265                         0.73      1.02      0.82      0.53         0.21
  301                         1.08      1.08      1.21      0.02         0.01
  302                         0.98      1.20      1.01      0.82         0.51
  304                         1.83      1.83      1.88      0.03         0.02
  272                         0.62      0.62      1.32      0.01         0.01
  498                         0.73      0.73      4.70      0.01         0.01
  488                         0.34      0.34      4.60      0.01         0.01
  283                         1.47      1.47      1.51      0.01         0.01
  281                         1.47      1.49      1.50      0.17         0.06
  499                         0.96      0.96      1.08      0.01         0.01
  296                         1.02      1.17      1.14      0.23         0.04
  305                         1.77      1.77      1.83      0.01         0.01
  113                         1.47      1.48      1.49      0.18         0.11
  285                         1.44      1.44      1.47      0.01         0.01
  293                         1.76      1.76      1.77      0.34         0.22
  294                         1.06      1.06      1.15      0.02         0.01
  494                         0.60      0.60      4.58      0.01         0.01
  489                         0.39      0.39      4.48      0.01         0.01
  101                         1.45      1.47      1.48      0.22         0.13
  286                         1.35      1.35      1.44      0.01         0.01
  280                         0.98      0.98      1.09      0.01         0.01
  493                         0.47      0.47      4.40      0.01         0.01
  287                         0.86      0.86      1.05      0.02         0.01
  288                         1.03      1.26      1.20      0.34         0.08
  292                         1.72      1.73      1.76      0.22         0.13
  90                          1.43      1.48      1.47      0.24         0.15
  485                         0.37      0.37      4.40      0.01         0.01
  484                         0.44      0.44      4.40      0.01         0.01
  124                         0.79      0.83      0.86      0.06         0.01
  490                         0.44      0.44      4.36      0.01         0.01
  278                         1.27      1.27      1.35      0.01         0.01
  491                         0.79      0.79      0.86      0.01         0.01
  290                         1.68      1.68      1.73      0.04         0.06
  271                         0.83      0.83      1.14      0.01         0.01
  289                         1.47      1.58      1.50      0.31         0.12
  492                         0.75      0.75      4.68      0.01         0.01
  440                         0.83      0.83      1.02      0.01         0.01
  79                          1.39      1.39      1.48      0.01         0.01
  268                         1.24      1.24      1.27      0.01         0.01
  135                         0.86      0.86      1.04      0.01         0.01
  224                         1.52      1.56      1.58      0.32         0.23
  317                         1.23      1.23      1.34      0.03         0.01
  291                         1.62      1.62      1.68      0.01         0.01
  68                          1.35      1.35      1.39      0.04         0.03
  410                         0.53      0.53      4.40      0.01         0.01
  257                         1.20      1.34      1.24      0.37         0.18
  146                         0.81      0.81      0.92      0.01         0.01
  482                         0.86      0.86      4.55      0.01         0.01
  212                         1.53      1.66      1.56      0.34         0.16
  190                         1.14      1.14      1.34      0.03         0.02
  328                         1.58      1.58      1.62      0.01         0.01
  519                         0.81      0.81      4.44      0.01         0.01
  477                         0.83      0.83      4.44      0.01         0.01
  306                         1.14      1.14      1.23      0.01         0.01
  447                         0.81      0.81      1.07      0.01         0.01
  57                          1.32      1.32      1.35      0.19         0.13
  246                         1.30      1.30      1.34      0.19         0.18
  157                         0.93      0.93      1.12      0.01         0.01
  24                          1.04      1.09      1.14      0.13         0.06
  201                         1.44      1.44      1.66      0.01         0.01
  339                         1.55      1.55      1.58      0.01         0.01
  295                         1.10      1.10      1.14      0.04         0.01
  2                           0.90      1.05      1.02      0.21         0.05
  46                          1.27      1.31      1.32      0.47         0.42
  383                         0.61      0.61      4.46      0.01         0.01
  235                         1.28      1.38      1.30      0.69         0.51
  168                         0.99      1.01      1.08      0.12         0.09
  13                          1.25      1.26      1.44      0.03         0.01
  112                         1.48      1.59      1.55      0.28         0.14
  266                         0.90      0.90      1.02      0.01         0.01
  284                         1.07      1.07      1.10      0.07         0.01
  454                         1.01      1.01      1.18      0.01         0.01
  35                          1.20      1.20      1.31      0.44         0.41
  179                         1.15      1.15      1.38      0.04         0.06
  367                         1.09      1.09      1.26      0.03         0.01
  350                         1.06      1.06      1.26      0.01         0.01
  483                         0.86      0.86      4.48      0.01         0.01
  233                         1.25      1.25      1.59      0.02         0.04
  232                         0.95      0.95      1.08      0.06         0.02
  267                         0.92      1.00      1.02      0.16         0.03
  223                         1.03      1.24      1.07      0.48         0.20
  369                         1.09      1.09      1.20      0.03         0.04
  373                         0.93      0.93      4.66      0.01         0.01
  270                         0.98      0.98      1.25      0.01         0.01
  269                         1.09      1.09      1.24      0.22         0.23
  

  Analysis begun on:  Wed Dec 22 20:06:28 2021
  Analysis ended on:  Wed Dec 22 20:06:29 2021
  Total elapsed time: 00:00:01