
  EPA STORM WATER MANAGEMENT MODEL - VERSION 5.1 (Build 5.3.0.dev0)
  --------------------------------------------------------------

  
  *********************************************************
  NOTE: The summary statistics displayed in this report are
  based on results found at every computational time step,  
  not just on results from each reporting time step.
  *********************************************************
  
  ****************
  Analysis Options
  ****************
  Flow Units ............... CMS
  Process Models:
    Rainfall/Runoff ........ YES
    RDII ................... NO
    Snowmelt ............... NO
    Groundwater ............ NO
    Flow Routing ........... YES
    Ponding Allowed ........ YES
    Water Quality .......... NO
  Infiltration Method ...... HORTON
  Flow Routing Method ...... DYNWAVE
  Surcharge Method ......... EXTRAN
  Starting Date ............ 12/15/2017 00:00:00
  Ending Date .............. 12/15/2017 06:00:00
  Antecedent Dry Days ...... 0.0
  Report Time Step ......... 00:01:00
  Wet Time Step ............ 00:01:00
  Dry Time Step ............ 06:00:00
  Routing Time Step ........ 30.00 sec
  Variable Time Step ....... YES
  Maximum Trials ........... 8
  Number of Threads ........ 1
  Head Tolerance ........... 0.001500 m
  
  
  **************************        Volume         Depth
  Runoff Quantity Continuity     hectare-m            mm
  **************************     ---------       -------
  Total Precipitation ......        11.436        23.286
  Evaporation Loss .........         0.000         0.000
  Infiltration Loss ........         1.331         2.710
  Surface Runoff ...........         8.976        18.277
  Final Storage ............         1.130         2.300
  Continuity Error (%) .....        -0.011
  
  
  **************************        Volume        Volume
  Flow Routing Continuity        hectare-m      10^6 ltr
  **************************     ---------     ---------
  Dry Weather Inflow .......         0.000         0.000
  Wet Weather Inflow .......         8.978        89.784
  Groundwater Inflow .......         0.000         0.000
  RDII Inflow ..............         0.000         0.000
  External Inflow ..........         0.000         0.000
  External Outflow .........         8.930        89.305
  Flooding Loss ............         0.000         0.000
  Evaporation Loss .........         0.000         0.000
  Exfiltration Loss ........         0.000         0.000
  Initial Stored Volume ....         0.000         0.000
  Final Stored Volume ......         0.047         0.471
  Continuity Error (%) .....         0.009
  
  
  *************************
  Highest Continuity Errors
  *************************
  Node 247 (-18.40%)
  Node 101 (-16.02%)
  Node 149 (-7.19%)
  Node 22 (3.06%)
  Node 110 (-2.94%)
  
  
  ***************************
  Time-Step Critical Elements
  ***************************
  Link 26 (39.81%)
  Link 163 (9.60%)
  Link 223 (9.09%)
  Link 123 (7.79%)
  Link 342 (1.72%)
  
  
  ********************************
  Highest Flow Instability Indexes
  ********************************
  Link 83 (29)
  Link 85 (28)
  Link 81 (26)
  Link 78 (25)
  Link 375 (23)
  
  
  *************************
  Routing Time Step Summary
  *************************
  Minimum Time Step           :     0.51 sec
  Average Time Step           :    10.08 sec
  Maximum Time Step           :    30.00 sec
  Percent in Steady State     :     0.63
  Average Iterations per Step :     5.35
  Percent Not Converging      :    46.20
  
  
  ***************************
  Subcatchment Runoff Summary
  ***************************
  
  ------------------------------------------------------------------------------------------------------------------------------
                            Total      Total      Total      Total     Imperv       Perv      Total       Total     Peak  Runoff
                           Precip      Runon       Evap      Infil     Runoff     Runoff     Runoff      Runoff   Runoff   Coeff
  Subcatchment                 mm         mm         mm         mm         mm         mm         mm    10^6 ltr      CMS
  ------------------------------------------------------------------------------------------------------------------------------
  532                       23.29       0.00       0.00       2.46      17.57       1.12      18.69        0.39     0.16   0.803
  533                       23.29       0.00       0.00       2.46      17.57       1.12      18.69        0.27     0.11   0.803
  534                       23.29       0.00       0.00       2.46      17.57       1.12      18.69        0.31     0.12   0.803
  535                       23.29       0.00       0.00       2.46      17.57       1.12      18.69        0.37     0.15   0.803
  536                       23.29       0.00       0.00       2.46      17.57       1.12      18.69        0.35     0.14   0.803
  537                       23.29       0.00       0.00       2.46      17.57       1.12      18.69        0.34     0.14   0.803
  538                       23.29       0.00       0.00       2.46      17.57       1.12      18.69        0.33     0.14   0.803
  539                       23.29       0.00       0.00       2.46      17.57       1.12      18.69        0.32     0.13   0.803
  540                       23.29       0.00       0.00       2.46      17.57       1.12      18.69        0.60     0.24   0.803
  541                       23.29       0.00       0.00       2.46      17.57       1.12      18.69        0.58     0.24   0.803
  542                       23.29       0.00       0.00       2.46      17.57       1.12      18.69        0.28     0.12   0.803
  543                       23.29       0.00       0.00       2.46      17.57       1.12      18.69        0.47     0.19   0.803
  544                       23.29       0.00       0.00       2.46      17.57       1.12      18.69        1.08     0.44   0.803
  545                       23.29       0.00       0.00       2.46      17.57       1.12      18.69        0.44     0.18   0.803
  546                       23.29       0.00       0.00       2.46      17.57       1.12      18.69        0.43     0.18   0.803
  547                       23.29       0.00       0.00       2.46      17.57       1.12      18.69        0.38     0.15   0.803
  548                       23.29       0.00       0.00       2.46      17.57       1.12      18.69        0.31     0.12   0.803
  549                       23.29       0.00       0.00       2.46      17.57       1.12      18.69        0.43     0.18   0.803
  550                       23.29       0.00       0.00       2.46      17.57       1.12      18.69        0.44     0.18   0.803
  551                       23.29       0.00       0.00       2.46      17.57       1.12      18.69        0.21     0.09   0.803
  552                       23.29       0.00       0.00       2.46      17.57       1.12      18.69        0.22     0.09   0.803
  553                       23.29       0.00       0.00       2.46      17.57       1.12      18.69        0.21     0.09   0.803
  554                       23.29       0.00       0.00       2.46      17.57       1.12      18.69        0.21     0.09   0.803
  555                       23.29       0.00       0.00       2.46      17.57       1.12      18.69        0.21     0.09   0.803
  556                       23.29       0.00       0.00       2.46      17.57       1.12      18.69        0.21     0.09   0.803
  557                       23.29       0.00       0.00       2.46      17.57       1.12      18.69        0.21     0.09   0.803
  558                       23.29       0.00       0.00       2.46      17.57       1.12      18.69        0.43     0.17   0.803
  559                       23.29       0.00       0.00       2.46      17.57       1.12      18.69        0.22     0.09   0.803
  560                       23.29       0.00       0.00       2.46      17.57       1.12      18.69        0.41     0.17   0.803
  561                       23.29       0.00       0.00       2.46      17.57       1.12      18.69        0.43     0.18   0.803
  562                       23.29       0.00       0.00       2.46      17.57       1.12      18.69        0.37     0.15   0.803
  563                       23.29       0.00       0.00       2.46      17.57       1.12      18.69        0.67     0.27   0.803
  564                       23.29       0.00       0.00       2.46      17.57       1.12      18.69        0.63     0.26   0.803
  565                       23.29       0.00       0.00       2.46      17.57       1.12      18.69        0.60     0.25   0.803
  566                       23.29       0.00       0.00       2.46      17.57       1.12      18.69        0.53     0.22   0.803
  567                       23.29       0.00       0.00       2.46      17.57       1.12      18.69        0.48     0.19   0.803
  568                       23.29       0.00       0.00       2.46      17.57       1.12      18.69        0.43     0.18   0.803
  569                       23.29       0.00       0.00       2.46      17.57       1.12      18.69        0.44     0.18   0.803
  570                       23.29       0.00       0.00       2.46      17.57       1.12      18.69        0.38     0.15   0.803
  571                       23.29       0.00       0.00       2.46      17.57       1.12      18.69        0.66     0.27   0.803
  572                       23.29       0.00       0.00       2.46      17.57       1.12      18.69        0.31     0.12   0.803
  573                       23.29       0.00       0.00       2.46      17.57       1.12      18.69        0.30     0.12   0.803
  574                       23.29       0.00       0.00       2.46      17.57       1.12      18.69        0.29     0.12   0.803
  575                       23.29       0.00       0.00       2.46      17.57       1.12      18.69        0.27     0.11   0.803
  576                       23.29       0.00       0.00       2.46      17.57       1.12      18.69        0.26     0.11   0.803
  577                       23.29       0.00       0.00       2.46      17.57       1.12      18.69        0.24     0.10   0.803
  578                       23.29       0.00       0.00       2.46      17.57       1.12      18.69        0.24     0.10   0.803
  579                       23.29       0.00       0.00       2.46      17.57       1.12      18.69        0.45     0.18   0.803
  580                       23.29       0.00       0.00       2.46      17.57       1.12      18.69        0.21     0.08   0.803
  581                       23.29       0.00       0.00       2.46      17.57       1.12      18.69        0.37     0.15   0.803
  582                       23.29       0.00       0.00       2.46      17.57       1.12      18.69        0.33     0.14   0.803
  583                       23.29       0.00       0.00       2.46      17.57       1.12      18.69        0.57     0.23   0.803
  584                       23.29       0.00       0.00       2.46      17.57       1.12      18.69        0.56     0.23   0.803
  585                       23.29       0.00       0.00       2.46      17.57       1.12      18.69        0.49     0.20   0.803
  586                       23.29       0.00       0.00       2.46      17.57       1.12      18.69        0.36     0.15   0.803
  587                       23.29       0.00       0.00       2.46      17.57       1.12      18.69        0.35     0.14   0.803
  588                       23.29       0.00       0.00       2.46      17.57       1.12      18.69        0.36     0.14   0.803
  589                       23.29       0.00       0.00       2.46      17.57       1.12      18.69        0.35     0.14   0.803
  590                       23.29       0.00       0.00       2.46      17.57       1.12      18.69        0.35     0.14   0.803
  591                       23.29       0.00       0.00       2.46      17.57       1.12      18.69        0.36     0.15   0.803
  592                       23.29       0.00       0.00       2.46      17.57       1.12      18.69        0.36     0.15   0.803
  593                       23.29       0.00       0.00       2.46      17.57       1.12      18.69        0.37     0.15   0.803
  594                       23.29       0.00       0.00       2.46      17.57       1.12      18.69        0.36     0.15   0.803
  595                       23.29       0.00       0.00       2.46      17.57       1.12      18.69        0.37     0.15   0.803
  596                       23.29       0.00       0.00       2.46      17.57       1.12      18.69        0.37     0.15   0.803
  597                       23.29       0.00       0.00       2.46      17.57       1.12      18.69        0.37     0.15   0.803
  598                       23.29       0.00       0.00       2.46      17.57       1.12      18.69        0.38     0.16   0.803
  599                       23.29       0.00       0.00       2.46      17.57       1.12      18.69        0.39     0.16   0.803
  600                       23.29       0.00       0.00       2.46      17.57       1.12      18.69        0.38     0.16   0.803
  601                       23.29       0.00       0.00       2.46      17.57       1.12      18.69        0.40     0.16   0.803
  602                       23.29       0.00       0.00       2.46      17.57       1.12      18.69        0.39     0.16   0.803
  603                       23.29       0.00       0.00       2.46      17.57       1.12      18.69        0.40     0.16   0.803
  604                       23.29       0.00       0.00       2.46      17.57       1.12      18.69        0.41     0.17   0.803
  605                       23.29       0.00       0.00       2.46      17.57       1.12      18.69        0.38     0.15   0.803
  606                       23.29       0.00       0.00       2.46      17.57       1.12      18.69        0.39     0.16   0.803
  607                       23.29       0.00       0.00       2.46      17.57       1.12      18.69        0.40     0.16   0.803
  608                       23.29       0.00       0.00       2.46      17.57       1.12      18.69        0.51     0.21   0.803
  609                       23.29       0.00       0.00       2.46      17.57       1.12      18.69        0.52     0.21   0.803
  610                       23.29       0.00       0.00       2.46      17.57       1.12      18.69        0.40     0.16   0.803
  611                       23.29       0.00       0.00       2.46      17.57       1.12      18.69        0.40     0.16   0.803
  612                       23.29       0.00       0.00       2.46      17.57       1.12      18.69        0.43     0.18   0.803
  613                       23.29       0.00       0.00       2.46      17.57       1.12      18.69        0.34     0.14   0.803
  614                       23.29       0.00       0.00       2.46      17.57       1.12      18.69        0.54     0.22   0.803
  615                       23.29       0.00       0.00       2.46      17.57       1.12      18.69        0.67     0.27   0.803
  616                       23.29       0.00       0.00       2.46      17.57       1.12      18.69        0.34     0.14   0.803
  617                       23.29       0.00       0.00       2.46      17.57       1.12      18.69        0.33     0.14   0.803
  618                       23.29       0.00       0.00       2.46      17.57       1.12      18.69        0.34     0.14   0.803
  619                       23.29       0.00       0.00       2.46      17.57       1.12      18.69        0.34     0.14   0.803
  620                       23.29       0.00       0.00       2.46      17.57       1.12      18.69        0.33     0.14   0.803
  621                       23.29       0.00       0.00       2.46      17.57       1.12      18.69        0.34     0.14   0.803
  622                       23.29       0.00       0.00       2.46      17.57       1.12      18.69        0.33     0.14   0.803
  623                       23.29       0.00       0.00       2.46      17.57       1.12      18.69        0.34     0.14   0.803
  624                       23.29       0.00       0.00       2.46      17.57       1.12      18.69        0.34     0.14   0.803
  625                       23.29       0.00       0.00       2.46      17.57       1.12      18.69        0.34     0.14   0.803
  626                       23.29       0.00       0.00       2.46      17.57       1.12      18.69        0.34     0.14   0.803
  627                       23.29       0.00       0.00       2.46      17.57       1.12      18.69        0.34     0.14   0.803
  628                       23.29       0.00       0.00       2.46      17.57       1.12      18.69        0.34     0.14   0.803
  629                       23.29       0.00       0.00       2.46      17.57       1.12      18.69        0.35     0.14   0.803
  630                       23.29       0.00       0.00       2.46      17.57       1.12      18.69        0.33     0.13   0.803
  631                       23.29       0.00       0.00       2.46      17.57       1.12      18.69        0.34     0.14   0.803
  632                       23.29       0.00       0.00       2.46      17.57       1.12      18.69        0.34     0.14   0.803
  633                       23.29       0.00       0.00       2.46      17.57       1.12      18.69        0.36     0.15   0.803
  634                       23.29       0.00       0.00       2.46      17.57       1.12      18.69        0.33     0.14   0.803
  635                       23.29       0.00       0.00       2.46      17.57       1.12      18.69        0.33     0.14   0.803
  636                       23.29       0.00       0.00       2.46      17.57       1.12      18.69        0.32     0.13   0.803
  637                       23.29       0.00       0.00       2.46      17.57       1.12      18.69        0.36     0.15   0.803
  638                       23.29       0.00       0.00       2.46      17.57       1.12      18.69        0.54     0.22   0.803
  639                       23.29       0.00       0.00       2.46      17.57       1.12      18.69        0.42     0.17   0.803
  640                       23.29       0.00       0.00       2.46      17.57       1.12      18.69        0.34     0.14   0.803
  641                       23.29       0.00       0.00       2.46      17.57       1.12      18.69        0.59     0.24   0.803
  642                       23.29       0.00       0.00       2.46      17.57       1.12      18.69        0.33     0.13   0.803
  643                       23.29       0.00       0.00       2.46      17.57       1.12      18.69        0.33     0.14   0.803
  644                       23.29       0.00       0.00       2.46      17.57       1.12      18.69        0.33     0.14   0.803
  645                       23.29       0.00       0.00       2.46      17.57       1.12      18.69        0.33     0.13   0.803
  646                       23.29       0.00       0.00       2.46      17.57       1.12      18.69        0.33     0.13   0.803
  647                       23.29       0.00       0.00       2.46      17.57       1.12      18.69        0.33     0.13   0.803
  648                       23.29       0.00       0.00       2.46      17.57       1.12      18.69        0.33     0.13   0.803
  649                       23.29       0.00       0.00       2.46      17.57       1.12      18.69        0.33     0.13   0.803
  650                       23.29       0.00       0.00       2.46      17.57       1.12      18.69        0.32     0.13   0.803
  651                       23.29       0.00       0.00       2.46      17.57       1.12      18.69        0.33     0.13   0.803
  652                       23.29       0.00       0.00       2.46      17.57       1.12      18.69        0.33     0.13   0.803
  653                       23.29       0.00       0.00       2.46      17.57       1.12      18.69        0.33     0.13   0.803
  654                       23.29       0.00       0.00       2.46      17.57       1.12      18.69        0.33     0.13   0.803
  655                       23.29       0.00       0.00       2.46      17.57       1.12      18.69        0.33     0.13   0.803
  656                       23.29       0.00       0.00       2.46      17.57       1.12      18.69        0.33     0.13   0.803
  657                       23.29       0.00       0.00       2.46      17.57       1.12      18.69        0.33     0.13   0.803
  658                       23.29       0.00       0.00       2.46      17.57       1.12      18.69        0.33     0.13   0.803
  659                       23.29       0.00       0.00       2.46      17.57       1.12      18.69        0.33     0.13   0.803
  660                       23.29       0.00       0.00       2.46      17.57       1.12      18.69        0.33     0.13   0.803
  661                       23.29       0.00       0.00       2.46      17.57       1.12      18.69        0.33     0.14   0.803
  662                       23.29       0.00       0.00       2.46      17.57       1.12      18.69        0.50     0.20   0.803
  663                       23.29       0.00       0.00       2.46      17.57       1.12      18.69        0.33     0.14   0.803
  664                       23.29       0.00       0.00       2.46      17.57       1.12      18.69        1.57     0.64   0.803
  665                       23.29       0.00       0.00       2.46      17.57       1.12      18.69        1.42     0.58   0.803
  666                       23.29       0.00       0.00       2.46      17.57       1.12      18.69        1.12     0.46   0.803
  667                       23.29       0.00       0.00       2.46      17.57       1.12      18.69        0.60     0.24   0.803
  668                       23.29       0.00       0.00       2.46      17.57       1.12      18.69        0.49     0.20   0.803
  669                       23.29       0.00       0.00       2.46      17.57       1.12      18.69        0.50     0.20   0.803
  670                       23.29       0.00       0.00       2.46      17.57       1.12      18.69        0.49     0.20   0.803
  671                       23.29       0.00       0.00       2.46      17.57       1.12      18.69        0.49     0.20   0.803
  672                       23.29       0.00       0.00       2.46      17.57       1.12      18.69        0.75     0.30   0.803
  673                       23.29       0.00       0.00       2.46      17.57       1.12      18.69        0.64     0.26   0.803
  674                       23.29       0.00       0.00       2.46      17.57       1.12      18.69        0.93     0.38   0.803
  675                       23.29       0.00       0.00       2.46      17.57       1.12      18.69        0.88     0.36   0.803
  676                       23.29       0.00       0.00       2.46      17.57       1.12      18.69        0.85     0.35   0.803
  677                       23.29       0.00       0.00       2.46      17.57       1.12      18.69        0.75     0.30   0.803
  678                       23.29       0.00       0.00       2.46      17.57       1.12      18.69        0.77     0.31   0.803
  679                       23.29       0.00       0.00       2.46      17.57       1.12      18.69        0.66     0.27   0.803
  680                       23.29       0.00       0.00       2.46      17.57       1.12      18.69        0.28     0.11   0.803
  681                       23.29       0.00       0.00       2.46      17.57       1.12      18.69        0.50     0.21   0.803
  682                       23.29       0.00       0.00       2.46      17.57       1.12      18.69        0.41     0.17   0.803
  683                       23.29       0.00       0.00       2.46      17.57       1.12      18.69        0.41     0.17   0.803
  684                       23.29       0.00       0.00       2.46      17.57       1.12      18.69        0.66     0.27   0.803
  685                       23.29       0.00       0.00       2.46      17.57       1.12      18.69        0.63     0.26   0.803
  686                       23.29       0.00       0.00       2.46      17.57       1.12      18.69        0.80     0.32   0.803
  687                       23.29       0.00       0.00       9.86       4.43       2.50       6.93        1.25     0.44   0.297
  688                       23.29       0.00       0.00       2.46      17.57       1.12      18.69        0.37     0.15   0.803
  689                       23.29       0.00       0.00       2.46      17.57       1.12      18.69        0.35     0.14   0.803
  690                       23.29       0.00       0.00       2.46      17.57       1.12      18.69        0.87     0.35   0.803
  691                       23.29       0.00       0.00       2.46      17.57       1.12      18.69        1.11     0.45   0.803
  692                       23.29       0.00       0.00       2.46      17.57       1.12      18.69        0.62     0.25   0.803
  693                       23.29       0.00       0.00       2.46      17.57       1.12      18.69        0.63     0.26   0.803
  694                       23.29       0.00       0.00       2.46      17.57       1.12      18.69        1.14     0.46   0.803
  695                       23.29       0.00       0.00       2.46      17.57       1.12      18.69        0.25     0.10   0.803
  696                       23.29       0.00       0.00       2.46      17.57       1.12      18.69        0.34     0.14   0.803
  697                       23.29       0.00       0.00       2.46      17.57       1.12      18.69        0.40     0.16   0.803
  698                       23.29       0.00       0.00       2.46      17.57       1.12      18.69        0.69     0.28   0.803
  699                       23.29       0.00       0.00       2.46      17.57       1.12      18.69        0.54     0.22   0.803
  700                       23.29       0.00       0.00       2.46      17.57       1.12      18.69        0.68     0.28   0.803
  701                       23.29       0.00       0.00       2.46      17.57       1.12      18.69        0.51     0.21   0.803
  702                       23.29       0.00       0.00       2.46      17.57       1.12      18.69        0.31     0.13   0.803
  703                       23.29       0.00       0.00       2.46      17.57       1.12      18.69        0.49     0.20   0.803
  704                       23.29       0.00       0.00       2.46      17.57       1.12      18.69        0.50     0.21   0.803
  705                       23.29       0.00       0.00       2.46      17.57       1.12      18.69        0.27     0.11   0.803
  706                       23.29       0.00       0.00       2.46      17.57       1.12      18.69        0.22     0.09   0.803
  707                       23.29       0.00       0.00       2.46      17.57       1.12      18.69        0.44     0.18   0.803
  708                       23.29       0.00       0.00       2.46      17.57       1.12      18.69        0.61     0.25   0.803
  709                       23.29       0.00       0.00       2.46      17.57       1.12      18.69        0.29     0.12   0.803
  710                       23.29       0.00       0.00       2.46      17.57       1.12      18.69        0.19     0.08   0.803
  711                       23.29       0.00       0.00       2.46      17.57       1.12      18.69        0.16     0.06   0.803
  712                       23.29       0.00       0.00       2.46      17.57       1.12      18.69        0.46     0.19   0.803
  713                       23.29       0.00       0.00       2.46      17.57       1.12      18.69        0.19     0.08   0.803
  714                       23.29       0.00       0.00       2.46      17.57       1.12      18.69        0.19     0.08   0.803
  715                       23.29       0.00       0.00       2.46      17.57       1.12      18.69        0.19     0.08   0.803
  716                       23.29       0.00       0.00       2.46      17.57       1.12      18.69        0.19     0.08   0.803
  717                       23.29       0.00       0.00       2.46      17.57       1.12      18.69        0.19     0.08   0.803
  718                       23.29       0.00       0.00       2.46      17.57       1.12      18.69        0.28     0.11   0.803
  719                       23.29       0.00       0.00       2.46      17.57       1.12      18.69        0.28     0.11   0.803
  720                       23.29       0.00       0.00       2.46      17.57       1.12      18.69        0.28     0.11   0.803
  721                       23.29       0.00       0.00       2.46      17.57       1.12      18.69        0.28     0.11   0.803
  722                       23.29       0.00       0.00       2.46      17.57       1.12      18.69        0.28     0.11   0.803
  723                       23.29       0.00       0.00       2.46      17.57       1.12      18.69        0.28     0.11   0.803
  724                       23.29       0.00       0.00       2.46      17.57       1.12      18.69        0.28     0.11   0.803
  725                       23.29       0.00       0.00       2.46      17.57       1.12      18.69        0.28     0.11   0.803
  726                       23.29       0.00       0.00       2.46      17.57       1.12      18.69        0.28     0.11   0.803
  727                       23.29       0.00       0.00       2.46      17.57       1.12      18.69        0.28     0.11   0.803
  728                       23.29       0.00       0.00       2.46      17.57       1.12      18.69        0.28     0.11   0.803
  729                       23.29       0.00       0.00       2.46      17.57       1.12      18.69        0.28     0.11   0.803
  730                       23.29       0.00       0.00       2.46      17.57       1.12      18.69        0.28     0.11   0.803
  731                       23.29       0.00       0.00       2.46      17.57       1.12      18.69        0.28     0.11   0.803
  732                       23.29       0.00       0.00       2.46      17.57       1.12      18.69        0.28     0.11   0.803
  733                       23.29       0.00       0.00       2.46      17.57       1.12      18.69        0.28     0.11   0.803
  734                       23.29       0.00       0.00       2.46      17.57       1.12      18.69        0.28     0.11   0.803
  735                       23.29       0.00       0.00       2.46      17.57       1.12      18.69        0.28     0.11   0.803
  736                       23.29       0.00       0.00       2.46      17.57       1.12      18.69        0.28     0.11   0.803
  737                       23.29       0.00       0.00       2.46      17.57       1.12      18.69        0.28     0.11   0.803
  738                       23.29       0.00       0.00       2.46      17.57       1.12      18.69        0.28     0.11   0.803
  739                       23.29       0.00       0.00       2.46      17.57       1.12      18.69        0.28     0.11   0.803
  740                       23.29       0.00       0.00       2.46      17.57       1.12      18.69        0.28     0.11   0.803
  741                       23.29       0.00       0.00       2.46      17.57       1.12      18.69        0.28     0.11   0.803
  742                       23.29       0.00       0.00       2.46      17.57       1.12      18.69        0.28     0.11   0.803
  743                       23.29       0.00       0.00       2.46      17.57       1.12      18.69        0.28     0.11   0.803
  744                       23.29       0.00       0.00       2.46      17.57       1.12      18.69        0.19     0.08   0.803
  745                       23.29       0.00       0.00       0.00      17.57       2.81      20.37        0.31     0.12   0.875
  746                       23.29       0.00       0.00       0.00      17.57       2.81      20.37        0.31     0.12   0.875
  747                       23.29       0.00       0.00       0.00      17.57       2.81      20.37        0.41     0.16   0.875
  
  
  ******************
  Node Depth Summary
  ******************
  
  ---------------------------------------------------------------------------------
                                 Average  Maximum  Maximum  Time of Max    Reported
                                   Depth    Depth      HGL   Occurrence   Max Depth
  Node                 Type       Meters   Meters   Meters  days hr:min      Meters
  ---------------------------------------------------------------------------------
  1                    JUNCTION     0.68     1.58    18.43     0  01:52        1.58
  2                    JUNCTION     0.98     2.98    18.21     0  02:01        2.98
  3                    JUNCTION     0.49     1.67    18.17     0  02:05        1.67
  4                    JUNCTION     0.56     1.98    18.15     0  02:03        1.98
  5                    JUNCTION     0.58     2.04    18.14     0  02:04        2.04
  6                    JUNCTION     0.69     2.34    18.14     0  02:01        2.34
  7                    JUNCTION     0.78     2.59    18.13     0  01:59        2.59
  8                    JUNCTION     1.18     3.54    18.14     0  02:00        3.54
  9                    JUNCTION     1.14     3.46    18.14     0  02:00        3.46
  10                   JUNCTION     0.34     1.31    18.16     0  02:05        1.31
  11                   JUNCTION     0.59     1.56    18.18     0  02:18        1.56
  12                   JUNCTION     0.53     1.65    18.50     0  01:50        1.65
  13                   JUNCTION     0.41     1.55    18.12     0  02:10        1.55
  14                   JUNCTION     0.46     1.74    18.11     0  02:08        1.74
  15                   JUNCTION     0.55     2.06    18.10     0  02:05        2.06
  16                   JUNCTION     0.59     2.21    18.09     0  02:04        2.21
  17                   JUNCTION     0.62     2.35    18.09     0  02:02        2.35
  18                   JUNCTION     0.71     2.63    18.08     0  01:59        2.63
  19                   JUNCTION     0.77     2.92    18.06     0  01:56        2.92
  20                   JUNCTION     0.83     3.15    18.06     0  01:55        3.15
  21                   JUNCTION     0.25     1.24    18.09     0  01:50        1.24
  22                   JUNCTION     0.23     1.47    18.03     0  01:59        1.47
  23                   JUNCTION     0.17     1.21    18.06     0  02:00        1.21
  24                   JUNCTION     0.28     1.52    18.08     0  02:04        1.52
  25                   JUNCTION     0.35     1.36    18.21     0  02:02        1.36
  26                   JUNCTION     0.59     1.84    18.35     0  02:03        1.84
  27                   JUNCTION     0.59     1.86    18.24     0  02:00        1.86
  28                   JUNCTION     0.67     1.84    18.17     0  02:12        1.84
  29                   JUNCTION     0.81     2.32    18.16     0  02:06        2.32
  30                   JUNCTION     0.93     2.68    18.16     0  02:05        2.68
  31                   JUNCTION     0.70     2.19    18.31     0  01:52        2.19
  32                   JUNCTION     0.66     2.37    18.16     0  02:00        2.37
  33                   JUNCTION     0.68     2.52    18.11     0  01:58        2.52
  34                   JUNCTION     0.74     2.94    18.06     0  01:57        2.94
  35                   JUNCTION     0.78     3.06    18.05     0  01:56        3.06
  36                   JUNCTION     0.34     1.66    18.04     0  01:56        1.66
  37                   JUNCTION     0.87     3.30    18.05     0  01:53        3.30
  38                   JUNCTION     1.25     4.17    18.03     0  01:48        4.17
  39                   JUNCTION     1.09     3.87    18.04     0  01:50        3.87
  40                   JUNCTION     1.04     3.78    18.04     0  01:50        3.78
  41                   JUNCTION     0.86     3.31    18.04     0  01:54        3.31
  42                   JUNCTION     0.25     1.39    18.02     0  01:57        1.39
  43                   JUNCTION     0.63     1.96    18.31     0  01:49        1.96
  44                   JUNCTION     0.95     2.91    18.11     0  01:58        2.91
  45                   JUNCTION     1.46     4.12    18.10     0  01:57        4.12
  46                   JUNCTION     1.26     3.71    18.12     0  01:58        3.71
  47                   JUNCTION     1.56     4.30    18.08     0  01:55        4.30
  48                   JUNCTION     1.63     4.47    18.05     0  01:54        4.47
  49                   JUNCTION     0.38     1.82    18.02     0  01:55        1.82
  50                   JUNCTION     0.45     1.74    18.08     0  01:52        1.74
  51                   JUNCTION     0.58     1.99    18.15     0  01:50        1.99
  52                   JUNCTION     0.54     2.13    18.06     0  01:57        2.13
  53                   JUNCTION     0.65     2.74    18.04     0  01:46        2.74
  54                   JUNCTION     0.63     1.91    18.12     0  02:10        1.91
  55                   JUNCTION     0.44     1.50    18.12     0  02:09        1.50
  56                   JUNCTION     0.44     1.59    18.39     0  01:45        1.59
  57                   JUNCTION     1.91     5.06    18.00     0  01:34        5.05
  58                   JUNCTION     1.83     4.90    18.01     0  01:49        4.90
  59                   JUNCTION     1.75     4.74    18.03     0  01:53        4.74
  60                   JUNCTION     1.30     4.24    18.03     0  01:48        4.24
  61                   JUNCTION     1.32     4.31    18.02     0  01:47        4.30
  62                   JUNCTION     1.34     4.36    18.00     0  01:46        4.36
  63                   JUNCTION     1.53     4.73    18.00     0  01:45        4.73
  64                   JUNCTION     1.56     4.79    18.00     0  01:45        4.79
  65                   JUNCTION     1.61     4.91    18.00     0  01:45        4.91
  66                   JUNCTION     1.59     4.85    18.00     0  01:45        4.85
  67                   JUNCTION     1.64     4.97    18.00     0  01:45        4.96
  68                   JUNCTION     1.67     5.03    18.00     0  01:45        5.02
  69                   JUNCTION     1.70     5.09    18.00     0  01:45        5.07
  70                   JUNCTION     1.72     5.14    17.99     0  01:45        5.12
  71                   JUNCTION     1.75     5.19    17.97     0  01:45        5.17
  72                   JUNCTION     1.25     4.41    17.95     0  01:45        4.36
  73                   JUNCTION     1.07     3.99    17.99     0  01:45        3.95
  74                   JUNCTION     0.98     3.75    18.01     0  01:42        3.75
  75                   JUNCTION     0.94     3.60    18.00     0  01:42        3.60
  76                   JUNCTION     0.86     3.36    18.02     0  01:42        3.36
  77                   JUNCTION     0.82     3.25    18.03     0  01:43        3.24
  78                   JUNCTION     0.78     3.12    18.03     0  01:42        3.12
  79                   JUNCTION     0.73     2.99    18.02     0  01:44        2.99
  80                   JUNCTION     0.69     2.87    18.03     0  01:45        2.87
  81                   JUNCTION     0.44     1.54    18.15     0  02:09        1.54
  82                   JUNCTION     0.52     1.77    18.15     0  02:05        1.77
  83                   JUNCTION     0.63     2.01    18.17     0  01:57        2.01
  84                   JUNCTION     0.72     2.29    18.17     0  01:54        2.29
  85                   JUNCTION     0.76     2.48    18.15     0  01:53        2.48
  86                   JUNCTION     0.83     2.73    18.12     0  01:48        2.73
  87                   JUNCTION     0.83     2.90    18.00     0  01:46        2.90
  88                   JUNCTION     0.92     3.20    17.96     0  01:45        3.19
  89                   JUNCTION     0.32     1.58    18.03     0  01:46        1.58
  90                   JUNCTION     0.35     1.79    18.00     0  01:45        1.76
  91                   JUNCTION     0.37     1.89    17.99     0  01:45        1.85
  92                   JUNCTION     0.45     2.30    17.94     0  01:45        2.26
  93                   JUNCTION     1.44     4.73    17.93     0  01:45        4.69
  94                   JUNCTION     1.77     5.23    17.96     0  01:45        5.21
  95                   JUNCTION     0.34     1.92    17.97     0  01:45        1.92
  96                   JUNCTION     0.38     2.03    17.95     0  01:45        2.02
  97                   JUNCTION     0.17     1.34    17.84     0  01:43        1.30
  98                   JUNCTION     0.31     1.72    17.63     0  01:43        1.69
  99                   JUNCTION     0.21     1.46    17.71     0  01:43        1.36
  100                  JUNCTION     0.10     0.33    16.57     0  01:46        0.33
  101                  JUNCTION     0.01     0.07    16.57     0  01:47        0.07
  102                  JUNCTION     0.74     2.13    18.36     0  01:56        2.13
  103                  JUNCTION     0.68     2.02    18.39     0  01:52        2.02
  104                  JUNCTION     0.55     1.82    18.10     0  01:54        1.82
  105                  JUNCTION     0.46     1.62    18.12     0  01:56        1.62
  106                  JUNCTION     0.54     1.89    18.18     0  01:50        1.89
  107                  JUNCTION     0.42     1.67    18.18     0  01:57        1.67
  108                  JUNCTION     0.34     1.55    18.15     0  01:53        1.55
  109                  JUNCTION     0.52     2.03    18.21     0  01:39        2.03
  110                  JUNCTION     0.08     1.44    18.00     0  01:31        1.44
  111                  JUNCTION     0.57     2.33    18.13     0  01:42        2.33
  112                  JUNCTION     0.63     2.63    18.07     0  01:33        2.63
  113                  JUNCTION     0.66     2.18    18.00     0  01:46        2.18
  114                  JUNCTION     0.68     2.30    17.92     0  01:43        2.29
  115                  JUNCTION     0.75     2.20    18.08     0  01:50        2.20
  116                  JUNCTION     0.00     0.00    16.62     0  00:00        0.00
  117                  JUNCTION     0.15     0.74    16.49     0  01:47        0.74
  118                  JUNCTION     0.17     0.92    17.54     0  01:47        0.90
  119                  JUNCTION     0.37     1.97    17.51     0  01:46        1.96
  120                  JUNCTION     1.88     5.32    17.76     0  01:45        5.32
  121                  JUNCTION     1.88     5.34    17.81     0  01:44        5.34
  122                  JUNCTION     1.87     5.35    17.88     0  01:45        5.35
  123                  JUNCTION     1.46     4.76    17.92     0  01:45        4.73
  124                  JUNCTION     1.98     5.22    17.96     0  01:47        5.21
  125                  JUNCTION     0.88     2.45    18.11     0  02:03        2.45
  126                  JUNCTION     1.00     2.69    18.14     0  02:07        2.69
  127                  JUNCTION     1.05     2.80    18.16     0  02:05        2.80
  128                  JUNCTION     1.26     3.21    18.26     0  01:36        3.21
  129                  JUNCTION     1.33     3.36    18.21     0  01:47        3.36
  130                  JUNCTION     1.32     3.43    18.14     0  01:50        3.43
  131                  JUNCTION     1.28     3.50    18.05     0  01:48        3.50
  132                  JUNCTION     1.24     3.60    18.00     0  01:46        3.60
  133                  JUNCTION     1.32     3.97    17.94     0  01:45        3.93
  134                  JUNCTION     1.33     4.05    17.93     0  01:45        4.00
  135                  JUNCTION     1.34     4.13    17.90     0  01:45        4.06
  136                  JUNCTION     1.34     4.19    17.85     0  01:45        4.12
  137                  JUNCTION     1.34     4.25    17.81     0  01:45        4.18
  138                  JUNCTION     1.33     4.30    17.76     0  01:45        4.23
  139                  JUNCTION     1.30     4.30    17.66     0  01:45        4.25
  140                  JUNCTION     1.90     5.23    17.48     0  01:45        5.20
  141                  JUNCTION     1.87     5.13    17.32     0  01:45        5.11
  142                  JUNCTION     0.46     1.67    17.57     0  01:34        1.67
  143                  JUNCTION     0.24     1.24    16.36     0  01:46        1.24
  144                  JUNCTION     0.00     0.00    16.13     0  00:00        0.00
  145                  JUNCTION     0.71     2.61    18.00     0  01:26        2.27
  146                  JUNCTION     0.76     2.64    17.61     0  01:43        2.64
  147                  JUNCTION     0.32     1.73    17.83     0  01:38        1.60
  148                  JUNCTION     0.48     3.06    18.00     0  01:25        1.84
  149                  JUNCTION     0.08     0.69    16.79     0  01:42        0.69
  150                  JUNCTION     0.28     2.19    18.00     0  01:24        2.14
  151                  JUNCTION     0.59     2.48    18.01     0  01:30        2.48
  152                  JUNCTION     0.80     2.50    18.16     0  01:37        2.50
  153                  JUNCTION     0.56     2.04    18.11     0  01:49        2.04
  154                  JUNCTION     0.88     2.31    18.03     0  01:43        2.31
  155                  JUNCTION     1.02     2.31    18.10     0  02:05        2.31
  156                  JUNCTION     0.97     2.08    18.35     0  02:09        2.08
  157                  JUNCTION     0.54     1.48    18.10     0  02:15        1.48
  158                  JUNCTION     0.44     1.53    18.03     0  01:58        1.53
  159                  JUNCTION     0.60     1.96    18.33     0  01:53        1.96
  160                  JUNCTION     0.70     2.15    18.32     0  01:52        2.15
  161                  JUNCTION     2.05     5.37    17.88     0  01:47        5.36
  162                  JUNCTION     2.08     5.44    17.84     0  01:47        5.43
  163                  JUNCTION     2.10     5.49    17.81     0  01:47        5.48
  164                  JUNCTION     2.12     5.54    17.78     0  01:47        5.53
  165                  JUNCTION     2.14     5.57    17.73     0  01:47        5.57
  166                  JUNCTION     2.15     5.60    17.68     0  01:47        5.60
  167                  JUNCTION     2.17     5.64    17.63     0  01:47        5.63
  168                  JUNCTION     2.18     5.66    17.58     0  01:47        5.66
  169                  JUNCTION     2.19     5.68    17.52     0  01:47        5.68
  170                  JUNCTION     2.19     5.69    17.45     0  01:47        5.69
  171                  JUNCTION     2.20     5.70    17.38     0  01:47        5.69
  172                  JUNCTION     2.21     5.70    17.30     0  01:47        5.70
  173                  JUNCTION     2.22     5.69    17.21     0  01:46        5.69
  174                  JUNCTION     2.22     5.68    17.12     0  01:47        5.68
  175                  JUNCTION     2.22     5.66    17.02     0  01:47        5.64
  176                  JUNCTION     2.23     5.63    16.90     0  01:47        5.62
  177                  JUNCTION     2.46     5.89    16.79     0  01:47        5.89
  178                  JUNCTION     0.75     2.78    18.02     0  01:31        2.78
  179                  JUNCTION     0.39     1.69    16.25     0  01:44        1.69
  180                  JUNCTION     0.00     0.00    15.47     0  00:00        0.00
  181                  JUNCTION     0.61     2.31    17.28     0  01:32        2.25
  182                  JUNCTION     0.70     2.39    16.80     0  01:43        2.39
  183                  JUNCTION     0.08     0.29    17.14     0  01:30        0.28
  184                  JUNCTION     0.38     1.23    15.75     0  01:34        1.23
  185                  JUNCTION     0.13     0.70    17.55     0  01:30        0.70
  186                  JUNCTION     0.37     1.79    16.95     0  01:38        1.79
  187                  JUNCTION     0.84     2.50    16.69     0  01:35        2.49
  188                  JUNCTION     1.02     3.50    17.90     0  01:27        3.12
  189                  JUNCTION     1.10     3.36    18.00     0  01:27        3.26
  190                  JUNCTION     1.05     2.85    18.03     0  01:36        2.85
  191                  JUNCTION     1.05     2.55    18.03     0  01:42        2.55
  192                  JUNCTION     0.57     1.66    18.05     0  02:29        1.66
  193                  JUNCTION     0.90     2.24    18.05     0  02:23        2.24
  194                  JUNCTION     1.55     3.21    18.08     0  02:01        3.21
  195                  JUNCTION     0.50     1.38    18.23     0  01:50        1.38
  196                  JUNCTION     0.75     1.83    18.21     0  02:01        1.83
  197                  JUNCTION     0.94     2.21    18.13     0  02:04        2.21
  198                  JUNCTION     1.82     3.65    18.07     0  01:58        3.65
  199                  JUNCTION     1.98     3.95    18.02     0  01:46        3.95
  200                  JUNCTION     0.99     2.22    18.26     0  01:52        2.22
  201                  JUNCTION     0.91     1.94    18.41     0  02:07        1.94
  202                  JUNCTION     0.77     1.73    18.53     0  01:47        1.73
  203                  JUNCTION     0.22     1.21    17.74     0  01:33        1.21
  204                  JUNCTION     0.38     1.98    18.00     0  01:25        1.68
  205                  JUNCTION     1.66     4.18    18.00     0  01:26        3.84
  206                  JUNCTION     1.22     3.88    17.41     0  01:32        3.85
  207                  JUNCTION     0.15     1.66    18.00     0  01:27        1.66
  208                  JUNCTION     0.04     1.15    18.00     0  01:31        1.15
  209                  JUNCTION     0.58     1.51    15.53     0  01:35        1.51
  210                  JUNCTION     0.37     1.71    18.09     0  01:41        1.71
  211                  JUNCTION     0.22     1.03    16.77     0  01:23        0.80
  212                  JUNCTION     0.67     2.31    15.43     0  01:32        2.31
  213                  JUNCTION     0.50     1.38    14.23     0  01:33        1.38
  214                  JUNCTION     0.00     0.00    16.18     0  00:00        0.00
  215                  JUNCTION     0.47     1.02    14.50     0  01:33        1.01
  216                  JUNCTION     0.00     0.00    16.85     0  00:00        0.00
  217                  JUNCTION     0.49     0.97    13.99     0  01:33        0.97
  218                  JUNCTION     0.49     1.03    13.63     0  01:31        1.03
  219                  JUNCTION     0.48     0.98    13.46     0  01:32        0.98
  220                  JUNCTION     0.56     1.13    12.89     0  01:32        1.13
  221                  JUNCTION     0.64     1.36    12.56     0  01:37        1.36
  222                  JUNCTION     0.41     1.41    15.13     0  01:20        1.21
  223                  JUNCTION     0.47     1.63    15.67     0  01:33        1.62
  224                  JUNCTION     0.48     1.73    16.07     0  01:34        1.73
  225                  JUNCTION     0.00     0.00    14.83     0  00:00        0.00
  226                  JUNCTION     0.00     0.00    14.30     0  00:00        0.00
  227                  JUNCTION     0.00     0.00    13.76     0  00:00        0.00
  228                  JUNCTION     0.63     1.36    12.50     0  01:37        1.36
  229                  JUNCTION     0.35     1.46    15.47     0  01:45        1.46
  230                  JUNCTION     0.33     1.97    15.51     0  01:23        1.26
  231                  JUNCTION     0.32     2.29    15.35     0  01:23        1.21
  232                  JUNCTION     0.67     1.45    12.43     0  01:37        1.45
  233                  JUNCTION     0.91     3.40    18.00     0  01:29        3.40
  234                  JUNCTION     0.62     2.75    16.72     0  01:30        2.75
  235                  JUNCTION     0.39     1.48    14.95     0  01:30        1.48
  236                  JUNCTION     0.66     1.45    12.37     0  01:40        1.45
  237                  JUNCTION     2.29     5.24    15.75     0  01:47        5.24
  238                  JUNCTION     1.90     4.24    14.60     0  01:47        4.24
  239                  JUNCTION     1.53     3.29    13.50     0  01:47        3.28
  240                  JUNCTION     1.43     2.75    12.31     0  01:41        2.74
  241                  JUNCTION     1.64     4.34    15.89     0  01:49        4.34
  242                  JUNCTION     0.08     0.26    16.44     0  01:30        0.26
  243                  JUNCTION     0.12     0.39    15.81     0  01:30        0.39
  244                  JUNCTION     0.00     0.00    16.65     0  00:00        0.00
  245                  JUNCTION     0.77     1.95    13.67     0  01:42        1.95
  246                  JUNCTION     1.61     4.25    15.96     0  01:49        4.25
  247                  JUNCTION     0.02     0.34    16.71     0  01:43        0.34
  248                  JUNCTION     0.85     3.21    16.69     0  01:43        3.20
  249                  JUNCTION     0.73     2.68    15.75     0  01:43        2.68
  250                  JUNCTION     1.08     3.06    14.89     0  01:41        3.05
  251                  JUNCTION     1.58     4.17    16.02     0  01:49        4.17
  252                  JUNCTION     0.16     1.48    17.85     0  01:35        1.06
  253                  JUNCTION     0.90     3.47    17.10     0  01:35        3.41
  254                  JUNCTION     1.55     4.08    16.09     0  01:50        4.08
  255                  JUNCTION     0.39     1.76    18.14     0  01:40        1.76
  256                  JUNCTION     0.93     3.64    17.54     0  01:34        3.60
  257                  JUNCTION     0.31     1.79    18.06     0  01:32        1.79
  258                  JUNCTION     1.23     3.80    15.90     0  01:43        3.80
  259                  JUNCTION     1.52     4.00    16.16     0  02:03        4.00
  260                  JUNCTION     0.22     1.68    18.00     0  01:30        1.68
  261                  JUNCTION     0.93     3.76    17.86     0  01:34        3.69
  262                  JUNCTION     0.00     0.00    16.85     0  00:00        0.00
  263                  JUNCTION     1.29     4.05    16.28     0  01:42        4.04
  264                  JUNCTION     1.49     3.99    16.30     0  02:03        3.99
  265                  JUNCTION     0.79     3.25    18.01     0  01:36        3.25
  266                  JUNCTION     0.93     3.74    18.00     0  01:34        3.74
  267                  JUNCTION     1.02     3.80    17.37     0  01:32        3.70
  268                  JUNCTION     1.34     4.23    16.60     0  01:42        4.23
  269                  JUNCTION     1.44     3.94    16.41     0  02:03        3.94
  270                  JUNCTION     1.40     3.90    16.52     0  02:03        3.90
  271                  JUNCTION     0.65     2.68    18.03     0  01:40        2.68
  272                  JUNCTION     0.18     1.73    18.00     0  01:33        1.73
  273                  JUNCTION     1.08     3.95    17.73     0  01:29        3.87
  274                  JUNCTION     1.12     3.83    17.08     0  01:39        3.68
  275                  JUNCTION     1.35     3.86    16.61     0  02:02        3.86
  276                  JUNCTION     1.28     3.77    16.68     0  02:01        3.77
  277                  JUNCTION     1.12     3.55    16.73     0  02:01        3.55
  278                  JUNCTION     1.03     3.40    16.78     0  02:00        3.40
  279                  JUNCTION     0.52     2.00    18.22     0  01:48        2.00
  280                  JUNCTION     0.54     2.14    18.16     0  01:50        2.14
  281                  JUNCTION     1.00     3.68    18.18     0  01:48        3.68
  282                  JUNCTION     0.58     2.44    18.13     0  01:48        2.44
  283                  JUNCTION     0.61     2.56    18.04     0  01:53        2.56
  284                  JUNCTION     0.18     1.47    18.00     0  01:32        1.41
  285                  JUNCTION     1.08     4.03    18.00     0  01:29        3.88
  286                  JUNCTION     1.09     3.95    18.00     0  01:29        3.89
  287                  JUNCTION     1.07     3.86    18.04     0  01:45        3.86
  288                  JUNCTION     1.05     3.81    18.11     0  01:47        3.81
  289                  JUNCTION     0.33     1.61    18.17     0  01:50        1.61
  290                  JUNCTION     0.95     3.49    17.68     0  01:49        3.40
  291                  JUNCTION     1.07     3.73    17.63     0  01:49        3.61
  292                  JUNCTION     1.12     3.65    17.34     0  01:39        3.57
  293                  JUNCTION     1.13     3.73    17.26     0  01:39        3.57
  294                  JUNCTION     0.75     3.05    17.82     0  01:49        2.97
  295                  JUNCTION     0.21     1.33    18.18     0  01:54        1.33
  296                  JUNCTION     0.94     3.54    18.21     0  01:48        3.54
  297                  JUNCTION     0.88     3.39    18.24     0  01:47        3.39
  298                  JUNCTION     0.34     1.49    18.34     0  01:54        1.49
  299                  JUNCTION     0.94     3.26    16.83     0  02:00        3.25
  300                  JUNCTION     0.86     3.10    16.88     0  02:00        3.10
  301                  JUNCTION     0.78     2.96    16.93     0  02:00        2.95
  302                  JUNCTION     0.63     2.74    17.09     0  01:47        2.65
  303                  JUNCTION     0.38     1.84    18.19     0  02:03        1.84
  304                  JUNCTION     0.61     2.60    18.26     0  01:47        2.60
  305                  JUNCTION     0.33     1.92    18.00     0  01:50        1.92
  306                  JUNCTION     0.57     2.69    17.96     0  01:49        2.59
  307                  JUNCTION     0.46     1.57    18.24     0  01:50        1.57
  308                  JUNCTION     0.68     2.28    18.21     0  02:05        2.28
  309                  JUNCTION     0.29     1.18    18.03     0  01:54        1.18
  310                  JUNCTION     0.49     1.66    18.33     0  01:52        1.66
  311                  JUNCTION     0.46     1.55    18.35     0  01:52        1.55
  312                  JUNCTION     0.32     1.33    18.18     0  02:00        1.33
  313                  JUNCTION     0.36     1.37    18.22     0  01:48        1.37
  314                  JUNCTION     0.39     1.36    18.16     0  01:48        1.36
  315                  JUNCTION     0.37     1.33    18.13     0  01:50        1.33
  316                  JUNCTION     0.56     1.74    18.41     0  01:50        1.74
  317                  JUNCTION     0.54     1.71    18.51     0  01:47        1.71
  318                  JUNCTION     0.00     0.00    16.85     0  00:00        0.00
  319                  JUNCTION     0.00     0.00    16.85     0  00:00        0.00
  320                  JUNCTION     0.17     1.15    18.00     0  01:22        0.97
  321                  JUNCTION     0.13     1.33    18.00     0  01:42        1.32
  322                  JUNCTION     0.16     1.20    18.00     0  01:43        1.20
  323                  JUNCTION     0.07     1.15    18.00     0  01:40        1.15
  324                  JUNCTION     0.16     1.20    18.00     0  01:46        1.20
  325                  JUNCTION     0.16     1.20    18.00     0  01:45        1.19
  326                  JUNCTION     0.16     1.20    18.00     0  01:45        1.19
  327                  JUNCTION     0.20     1.33    18.00     0  01:45        1.33
  328                  JUNCTION     0.19     1.33    18.00     0  01:45        1.33
  329                  JUNCTION     0.10     1.15    18.00     0  01:45        1.13
  330                  JUNCTION     0.23     1.34    18.01     0  01:46        1.34
  331                  JUNCTION     0.11     1.15    18.00     0  01:45        1.15
  332                  JUNCTION     0.17     1.20    18.00     0  01:46        1.20
  333                  JUNCTION     0.12     1.15    18.00     0  01:45        1.15
  334                  JUNCTION     0.12     1.15    18.00     0  01:45        1.15
  335                  JUNCTION     0.18     1.21    18.01     0  01:49        1.21
  336                  JUNCTION     0.22     1.22    18.07     0  01:53        1.22
  337                  JUNCTION     0.43     1.72    18.39     0  01:47        1.72
  338                  JUNCTION     0.28     1.30    18.15     0  02:06        1.30
  339                  JUNCTION     0.36     1.33    18.18     0  02:05        1.33
  340                  JUNCTION     0.40     1.35    18.20     0  02:04        1.35
  341                  JUNCTION     0.35     1.37    18.22     0  02:13        1.37
  342                  JUNCTION     0.25     1.23    18.08     0  02:02        1.23
  343                  JUNCTION     0.18     1.17    18.02     0  01:47        1.17
  344                  JUNCTION     0.01     0.05    16.90     0  02:08        0.05
  345                  JUNCTION     0.06     1.15    18.00     0  01:49        1.01
  346                  JUNCTION     0.02     0.20    17.05     0  01:57        0.20
  348                  JUNCTION     0.00     0.00    16.85     0  00:00        0.00
  349                  JUNCTION     0.10     1.15    18.00     0  01:29        0.85
  350                  JUNCTION     0.37     1.20    18.05     0  02:30        1.20
  z_0512_001_001       JUNCTION     0.47     1.33    18.18     0  02:18        1.33
  z_0512_001_002       JUNCTION     0.44     1.52    18.37     0  01:57        1.52
  z_0512_001_003       JUNCTION     0.31     1.26    18.11     0  01:56        1.26
  z_0512_001_004       JUNCTION     0.32     1.33    18.18     0  01:50        1.33
  z_0512_001_005       JUNCTION     0.27     1.31    18.16     0  01:55        1.31
  z_0512_001_006       JUNCTION     0.04     1.15    18.00     0  01:33        1.15
  z_0512_001_007       JUNCTION     0.39     1.48    18.33     0  01:55        1.48
  z_0512_001_008       JUNCTION     0.20     1.29    18.14     0  01:42        1.29
  z_0512_001_009       JUNCTION     0.00     0.00    16.85     0  00:00        0.00
  z_0512_001_010       JUNCTION     0.25     1.16    18.01     0  01:28        1.16
  z_0512_001_011       JUNCTION     0.08     1.15    18.00     0  01:38        1.15
  z_0512_001_012       JUNCTION     0.32     1.24    18.09     0  01:50        1.24
  z_0512_001_013       JUNCTION     0.00     0.00    16.85     0  00:00        0.00
  z_0512_001_014       JUNCTION     0.00     0.00    16.85     0  00:00        0.00
  z_0512_001_015       JUNCTION     0.10     1.15    18.00     0  01:31        0.67
  z_0512_001_018       JUNCTION     0.47     1.33    18.18     0  02:18        1.33
  z_0512_001_020       JUNCTION     0.29     1.27    18.12     0  02:12        1.27
  z_0512_001_024       JUNCTION     0.44     1.50    18.35     0  02:01        1.50
  z_0512_001_026       JUNCTION     0.12     1.15    18.00     0  01:27        0.72
  z_0512_001_027       JUNCTION     0.00     0.00    16.85     0  00:00        0.00
  z_0512_001_028       JUNCTION     0.00     0.00    16.85     0  00:00        0.00
  z_0512_001_030       JUNCTION     0.08     1.03    17.88     0  01:38        0.84
  z_0512_001_031       JUNCTION     0.00     0.00    16.85     0  00:00        0.00
  z_0512_001_032       JUNCTION     0.14     1.15    18.00     0  01:30        1.15
  z_0512_001_033       JUNCTION     0.14     1.15    18.00     0  01:30        1.15
  z_0512_001_034       JUNCTION     0.20     1.24    18.09     0  02:07        1.24
  z_0512_001_035       JUNCTION     0.29     1.26    18.11     0  01:53        1.26
  z_0512_001_036       JUNCTION     0.36     1.20    18.05     0  02:32        1.20
  z_0512_001_037       JUNCTION     0.63     1.51    18.36     0  02:06        1.51
  z_0512_001_038       JUNCTION     0.42     1.25    18.10     0  02:14        1.25
  z_0512_001_039       JUNCTION     0.28     1.26    18.11     0  01:57        1.26
  z_0512_001_040       JUNCTION     0.29     1.18    18.03     0  01:59        1.18
  z_0512_001_042       JUNCTION     0.36     1.30    18.15     0  02:07        1.30
  z_0512_001_043       JUNCTION     0.00     0.03    16.88     0  02:03        0.03
  z_0512_001_044       JUNCTION     0.39     1.40    18.25     0  01:55        1.40
  z_0512_001_045       JUNCTION     0.00     0.00    16.85     0  00:00        0.00
  z_0512_001_046       JUNCTION     0.36     1.36    18.21     0  01:58        1.36
  z_0512_001_047       JUNCTION     0.00     0.00    16.85     0  00:00        0.00
  z_0512_001_048       JUNCTION     0.31     1.29    18.14     0  02:00        1.29
  z_0512_001_049       JUNCTION     0.00     0.00    16.85     0  00:00        0.00
  z_0512_001_050       JUNCTION     0.24     1.19    18.04     0  01:57        1.19
  z_0512_001_051       JUNCTION     0.00     0.00    16.85     0  00:00        0.00
  z_0512_001_052       JUNCTION     0.19     1.15    18.00     0  01:34        1.15
  z_0512_001_053       JUNCTION     0.00     0.00    16.85     0  00:00        0.00
  z_0512_001_055       JUNCTION     0.00     0.00    16.85     0  00:00        0.00
  z_0512_001_056       JUNCTION     0.12     1.15    18.00     0  01:37        1.15
  z_0512_001_057       JUNCTION     0.00     0.00    16.85     0  00:00        0.00
  z_0512_001_058       JUNCTION     0.11     1.15    18.00     0  01:39        1.15
  z_0512_001_059       JUNCTION     0.00     0.00    16.85     0  00:00        0.00
  z_0512_001_061       JUNCTION     0.16     1.19    18.04     0  02:02        1.19
  z_0512_001_062       JUNCTION     0.00     0.00    16.85     0  00:00        0.00
  z_0512_001_064       JUNCTION     0.00     0.00    16.85     0  00:00        0.00
  z_0512_001_065       JUNCTION     0.06     1.15    18.00     0  01:42        1.15
  z_0512_001_066       JUNCTION     0.00     0.00    16.85     0  00:00        0.00
  z_0512_001_067       JUNCTION     0.04     1.15    18.00     0  01:43        1.15
  z_0512_001_068       JUNCTION     0.00     0.00    16.85     0  00:00        0.00
  z_0512_001_070       JUNCTION     0.00     0.00    16.85     0  00:00        0.00
  z_0512_001_071       JUNCTION     0.15     1.16    18.01     0  01:34        1.16
  z_0512_001_072       JUNCTION     0.00     0.00    16.85     0  00:00        0.00
  z_0512_001_073       JUNCTION     0.00     0.00    16.85     0  00:00        0.00
  z_0512_001_074       JUNCTION     0.01     0.59    17.44     0  01:32        0.38
  z_0512_001_075       JUNCTION     0.00     0.00    16.85     0  00:00        0.00
  z_0512_001_076       JUNCTION     0.08     1.15    18.00     0  01:37        1.15
  z_0512_001_077       JUNCTION     0.00     0.00    16.85     0  00:00        0.00
  z_0512_001_078       JUNCTION     0.00     0.00    16.85     0  00:00        0.00
  z_0512_001_079       JUNCTION     0.00     0.13    16.98     0  01:36        0.13
  z_0512_001_080       JUNCTION     0.49     1.36    18.21     0  01:56        1.36
  z_0512_001_081       JUNCTION     0.37     1.20    18.05     0  02:23        1.20
  z_0512_001_082       JUNCTION     0.32     1.19    18.04     0  01:48        1.19
  z_0512_001_083       JUNCTION     0.67     1.56    18.41     0  02:06        1.56
  z_0512_001_084       JUNCTION     0.15     1.15    18.00     0  01:27        1.05
  z_0512_001_086       JUNCTION     0.67     1.57    18.42     0  02:06        1.57
  z_0512_001_087       JUNCTION     0.10     1.15    18.00     0  01:29        1.15
  z_0512_001_088       JUNCTION     0.20     1.25    18.10     0  01:38        1.25
  z_0512_001_089       JUNCTION     0.00     0.00    16.85     0  00:00        0.00
  z_0512_001_090       JUNCTION     0.00     0.00    16.85     0  00:00        0.00
  z_0512_001_091       JUNCTION     0.22     1.23    18.08     0  02:02        1.23
  z_0512_001_092       JUNCTION     0.20     1.25    18.10     0  01:42        1.25
  z_0512_001_094       JUNCTION     0.00     0.00    16.85     0  00:00        0.00
  z_0512_001_095       JUNCTION     0.00     0.00    16.85     0  00:00        0.00
  z_0512_001_096       JUNCTION     0.00     0.00    16.85     0  00:00        0.00
  z_0512_001_097       JUNCTION     0.10     1.15    18.00     0  01:30        1.15
  z_0512_001_098       JUNCTION     0.25     1.25    18.10     0  02:06        1.25
  z_0512_001_100       JUNCTION     0.00     0.00    16.85     0  00:00        0.00
  z_0512_001_101       JUNCTION     0.00     0.00    16.85     0  00:00        0.00
  z_0512_001_103       JUNCTION     0.00     0.00    16.85     0  00:00        0.00
  z_0512_001_104       JUNCTION     0.03     1.15    18.00     0  01:35        0.58
  z_0512_001_105       JUNCTION     0.27     1.26    18.11     0  02:10        1.26
  z_0512_001_106       JUNCTION     0.22     1.29    18.14     0  01:47        1.29
  z_0512_001_107       JUNCTION     0.14     1.20    18.05     0  01:38        1.20
  z_0512_001_108       JUNCTION     0.08     1.15    18.00     0  01:33        1.15
  z_0512_001_109       JUNCTION     0.08     1.15    18.00     0  01:34        1.15
  z_0512_001_110       JUNCTION     0.14     1.16    18.01     0  01:39        1.16
  z_0512_001_112       JUNCTION     0.17     1.18    18.03     0  01:47        1.18
  z_0512_001_113       JUNCTION     0.08     1.15    18.00     0  01:37        1.15
  z_0512_001_114       JUNCTION     0.12     1.16    18.01     0  01:34        1.16
  z_0512_001_115       JUNCTION     0.00     0.02    16.87     0  01:40        0.02
  z_0512_001_116       JUNCTION     0.27     1.37    18.22     0  01:58        1.37
  z_0512_001_118       JUNCTION     0.19     1.27    18.12     0  01:59        1.27
  z_0512_001_121       JUNCTION     0.18     1.20    18.05     0  01:55        1.20
  z_0512_001_122       JUNCTION     0.02     0.20    17.05     0  01:56        0.20
  z_0512_001_123       JUNCTION     0.03     0.62    17.47     0  01:53        0.56
  z_0512_001_124       JUNCTION     0.04     1.15    18.00     0  01:49        0.69
  z_0512_001_125       JUNCTION     0.05     0.87    17.72     0  01:49        0.76
  z_0512_001_126       JUNCTION     0.06     1.15    18.00     0  01:49        0.91
  z_0512_001_129       JUNCTION     0.00     0.03    16.88     0  02:03        0.03
  z_0512_001_131       JUNCTION     0.25     1.34    18.19     0  02:07        1.34
  z_0512_001_132       JUNCTION     0.08     1.15    18.00     0  01:46        1.15
  z_0512_001_133       JUNCTION     0.31     1.32    18.17     0  02:03        1.32
  z_0512_001_134       JUNCTION     0.32     1.35    18.20     0  01:59        1.35
  z_0512_001_135       JUNCTION     0.17     1.19    18.04     0  02:00        1.19
  z_0512_001_136       JUNCTION     0.17     1.19    18.04     0  02:00        1.19
  z_0512_001_137       JUNCTION     0.13     1.19    18.04     0  01:56        1.19
  z_0512_001_138       JUNCTION     0.19     1.22    18.07     0  01:59        1.22
  z_0512_001_139       JUNCTION     0.30     1.30    18.15     0  02:00        1.30
  z_0512_001_140       JUNCTION     0.24     1.24    18.09     0  01:56        1.24
  z_0512_001_142       JUNCTION     0.19     1.18    18.03     0  01:59        1.18
  z_0512_001_143       JUNCTION     0.40     1.45    18.30     0  01:59        1.45
  z_0512_001_144       JUNCTION     0.21     1.17    18.02     0  01:59        1.17
  z_0512_001_145       JUNCTION     0.24     1.24    18.09     0  01:57        1.24
  z_0512_001_146       JUNCTION     0.13     1.19    18.04     0  01:55        1.19
  z_0512_001_147       JUNCTION     0.37     1.31    18.16     0  02:10        1.31
  z_0512_001_148       JUNCTION     0.19     1.21    18.06     0  02:01        1.21
  z_0512_001_149       JUNCTION     0.30     1.30    18.15     0  02:04        1.30
  z_0512_001_150       JUNCTION     0.36     1.27    18.12     0  02:08        1.27
  z_0512_001_151       JUNCTION     0.13     1.18    18.03     0  01:54        1.18
  z_0512_001_152       JUNCTION     0.13     1.17    18.02     0  01:53        1.17
  z_0512_001_153       JUNCTION     0.12     1.17    18.02     0  01:46        1.17
  z_0512_001_160       JUNCTION     0.13     1.18    18.03     0  01:53        1.18
  z_0512_001_161       JUNCTION     0.37     1.32    18.17     0  02:04        1.32
  z_0512_001_162       JUNCTION     0.13     1.18    18.03     0  01:47        1.18
  z_0512_001_163       JUNCTION     0.39     1.40    18.25     0  01:55        1.40
  z_0512_001_164       JUNCTION     0.12     1.17    18.02     0  01:46        1.17
  z_0512_001_165       JUNCTION     0.36     1.36    18.21     0  01:58        1.36
  z_0512_001_166       JUNCTION     0.12     1.16    18.01     0  01:47        1.16
  z_0512_001_167       JUNCTION     0.31     1.29    18.14     0  02:00        1.29
  z_0512_001_168       JUNCTION     0.12     1.17    18.02     0  01:45        1.17
  z_0512_001_169       JUNCTION     0.24     1.19    18.04     0  01:57        1.19
  z_0512_001_171       JUNCTION     0.19     1.15    18.00     0  01:34        1.15
  z_0512_001_173       JUNCTION     0.10     1.15    18.00     0  01:40        1.15
  z_0512_001_174       JUNCTION     0.16     1.18    18.03     0  01:53        1.18
  z_0512_001_175       JUNCTION     0.12     1.15    18.00     0  01:38        1.15
  z_0512_001_177       JUNCTION     0.10     1.15    18.00     0  01:39        1.15
  z_0512_001_179       JUNCTION     0.08     1.15    18.00     0  01:39        1.13
  z_0512_001_180       JUNCTION     0.04     1.15    18.00     0  01:42        1.06
  z_0512_001_181       JUNCTION     0.00     0.00    16.85     0  00:00        0.00
  347                  OUTFALL      1.05     1.75    11.13     0  01:41        1.75
  
  
  *******************
  Node Inflow Summary
  *******************
  
  -------------------------------------------------------------------------------------------------
                                  Maximum  Maximum                  Lateral       Total        Flow
                                  Lateral    Total  Time of Max      Inflow      Inflow     Balance
                                   Inflow   Inflow   Occurrence      Volume      Volume       Error
  Node                 Type           CMS      CMS  days hr:min    10^6 ltr    10^6 ltr     Percent
  -------------------------------------------------------------------------------------------------
  1                    JUNCTION     0.139    0.139     0  01:30        0.34       0.341       1.004
  2                    JUNCTION     0.133    0.576     0  01:29       0.327        1.42       1.233
  3                    JUNCTION     0.114    0.246     0  01:30        0.28       0.603       0.565
  4                    JUNCTION     0.000    0.379     0  01:30           0       0.921      -0.261
  5                    JUNCTION     0.000    0.379     0  01:30           0       0.963       0.988
  6                    JUNCTION     0.138    0.615     0  01:30       0.338        1.52      -0.393
  7                    JUNCTION     0.090    0.831     0  01:30       0.221        2.08       1.689
  8                    JUNCTION     0.000    0.708     0  01:27           0         2.1       0.040
  9                    JUNCTION     0.296    0.707     0  01:27       0.727        2.07      -0.547
  10                   JUNCTION     0.111    0.111     0  01:30       0.273       0.273       2.300
  11                   JUNCTION     0.139    0.139     0  01:30        0.34       0.427       0.439
  12                   JUNCTION     0.260    0.260     0  01:30       0.639        0.64       0.767
  13                   JUNCTION     0.161    0.172     0  01:31       0.394       0.425       0.222
  14                   JUNCTION     0.000    0.175     0  02:27           0       0.423       0.854
  15                   JUNCTION     0.151    0.280     0  01:28        0.37        0.76      -0.226
  16                   JUNCTION     0.000    0.264     0  01:28           0       0.788       0.153
  17                   JUNCTION     0.000    0.246     0  01:26           0       0.758       0.280
  18                   JUNCTION     0.140    0.336     0  01:27       0.344        1.13       0.299
  19                   JUNCTION     0.000    0.304     0  01:26           0         1.1       0.544
  20                   JUNCTION     0.076    0.359     0  01:26       0.187        1.28      -0.141
  21                   JUNCTION     0.132    0.132     0  01:30       0.323       0.324       1.258
  22                   JUNCTION     0.000    0.125     0  01:33           0      0.0471       3.157
  23                   JUNCTION     0.000    0.082     0  01:32           0      0.0206      11.787
  24                   JUNCTION     0.000    0.115     0  01:32           0      0.0829       1.463
  25                   JUNCTION     0.145    0.145     0  01:30       0.357       0.358       2.165
  26                   JUNCTION     0.189    0.189     0  01:30       0.464       0.542       0.271
  27                   JUNCTION     0.166    0.334     0  01:23       0.408        1.04       1.178
  28                   JUNCTION     0.000    0.120     0  02:54           0       0.351       0.666
  29                   JUNCTION     0.179    0.260     0  01:30       0.439       0.805       0.872
  30                   JUNCTION     0.000    0.497     0  01:26           0        1.56      -0.728
  31                   JUNCTION     0.268    0.339     0  01:30       0.658        1.12       0.390
  32                   JUNCTION     0.000    0.435     0  01:29           0        1.46      -0.339
  33                   JUNCTION     0.143    0.576     0  01:29       0.351        1.88       0.792
  34                   JUNCTION     0.000    0.568     0  01:29           0        1.82      -0.302
  35                   JUNCTION     0.000    0.584     0  01:30           0        1.84       0.298
  36                   JUNCTION     0.000    0.144     0  01:33           0       0.361       1.314
  37                   JUNCTION     0.076    0.412     0  01:26       0.187        1.47       1.248
  38                   JUNCTION     0.144    1.249     0  01:26       0.353        4.97      -0.467
  39                   JUNCTION     0.257    0.841     0  01:26       0.632        3.18       0.123
  40                   JUNCTION     0.154    0.767     0  01:27       0.378        2.57      -0.636
  41                   JUNCTION     0.000    0.782     0  01:28           0        1.92       1.272
  42                   JUNCTION     0.000    0.163     0  01:37           0       0.122      -0.324
  43                   JUNCTION     0.358    0.358     0  01:30       0.879       0.952       1.228
  44                   JUNCTION     0.000    0.451     0  01:28           0        1.51       0.722
  45                   JUNCTION     0.000    1.262     0  01:29           0        4.34      -0.883
  46                   JUNCTION     0.114    0.735     0  01:26        0.28        2.34       0.761
  47                   JUNCTION     0.000    1.461     0  01:27           0        5.92       0.006
  48                   JUNCTION     0.000    1.609     0  01:25           0        6.75       0.316
  49                   JUNCTION     0.000    0.188     0  01:34           0       0.168       1.481
  50                   JUNCTION     0.221    0.221     0  01:30       0.542       0.596       2.163
[...]
  254                         0.54      0.54      0.70      0.01         0.01
  524                         0.64      0.64      1.08      0.01         0.01
  405                         0.65      0.65      1.07      0.01         0.01
  39                          1.80      1.80      1.81      0.30         0.30
  77                          2.06      2.06      2.07      0.61         0.40
  197                         1.94      1.94      1.98      0.01         0.01
  465                         0.87      0.87      1.14      0.01         0.01
  468                         0.65      0.65      4.52      0.01         0.01
  466                         0.76      0.76      4.54      0.01         0.01
  219                         1.28      1.28      1.33      0.02         0.02
  218                         0.76      0.76      0.85      0.01         0.01
  274                         0.37      0.37      0.60      0.01         0.01
  230                         1.09      1.09      1.53      0.01         0.01
  430                         1.32      1.32      1.75      0.01         0.01
  104                         1.65      1.65      2.01      0.01         0.01
  429                         1.53      1.53      1.74      0.01         0.01
  352                         1.05      1.05      1.13      0.01         0.01
  241                         1.05      1.05      1.23      0.01         0.01
  8                           1.20      1.20      1.34      0.01         0.01
  357                         0.67      0.67      0.84      0.01         0.01
  9                           1.13      1.19      1.17      0.57         0.49
  14                          0.35      0.35      0.69      0.01         0.01
  382                         0.78      0.78      0.85      0.01         0.01
  381                         0.78      0.78      0.85      0.01         0.01
  12                          1.14      1.14      1.38      0.21         0.20
  433                         0.78      0.78      0.98      0.01         0.01
  102                         1.74      2.16      1.76      1.73         1.24
  60                          1.48      1.48      1.59      0.89         0.87
  525                         0.23      0.23      4.37      0.01         0.01
  504                         0.25      0.25      4.37      0.01         0.01
  322                         1.48      1.48      1.55      0.01         0.01
  340                         0.97      0.97      1.02      0.24         0.23
  315                         1.65      1.65      1.67      0.01         0.02
  255                         0.55      0.55      0.72      0.01         0.01
  403                         0.01      0.01      4.42      0.01         0.01
  337                         1.48      1.48      1.64      0.01         0.01
  38                          1.80      1.92      1.80      1.86         1.58
  76                          2.05      2.05      2.06      0.54         0.39
  198                         1.87      1.87      1.94      0.01         0.01
  476                         0.76      0.76      0.95      0.01         0.01
  220                         1.23      1.23      1.28      0.01         0.02
  481                         0.44      0.44      1.09      0.01         0.01
  385                         1.28      1.28      1.63      0.01         0.01
  279                         1.29      1.29      1.42      0.01         0.01
  240                         1.06      1.06      1.20      0.01         0.01
  353                         1.03      1.03      1.07      0.01         0.01
  239                         1.02      1.02      1.11      0.01         0.01
  10                          1.10      1.10      1.19      0.02         0.02
  355                         0.20      0.20      0.36      0.01         0.01
  11                          0.94      0.94      1.14      0.01         0.01
  69                          1.36      1.36      1.48      0.32         0.34
  61                          1.38      1.38      1.48      0.07         0.01
  103                         2.12      2.15      2.16      1.11         1.07
  522                         0.53      0.53      0.80      0.01         0.01
  323                         1.44      1.44      1.48      0.01         0.01
  338                         0.92      0.95      0.98      0.49         0.44
  314                         1.64      1.64      1.65      0.01         0.02
  256                         0.55      0.55      0.75      0.01         0.01
  520                         0.90      0.90      1.25      0.01         0.01
  401                         0.90      0.90      1.23      0.01         0.01
  37                          1.92      1.97      1.92      1.68         1.54
  336                         1.46      1.52      1.48      0.29         0.17
  75                          2.04      2.04      2.05      0.06         0.28
  199                         1.81      1.81      1.87      0.01         0.01
  229                         1.07      1.07      1.23      0.01         0.01
  221                         0.90      0.90      0.96      0.16         0.13
  238                         1.03      1.03      1.10      0.02         0.02
  354                         0.88      0.88      0.95      0.01         0.01
  388                         1.09      1.09      1.33      0.01         0.01
  384                         1.14      1.14      1.19      0.01         0.01
  356                         1.19      1.19      1.23      0.01         0.01
  237                         1.20      1.20      1.28      0.01         0.01
  67                          1.27      1.27      1.36      0.01         0.01
  431                         1.28      1.28      1.74      0.01         0.01
  63                          2.03      2.03      2.15      0.87         0.88
  62                          1.93      1.93      2.08      0.02         0.01
  521                         0.37      0.37      4.37      0.01         0.01
  503                         0.30      0.30      4.38      0.01         0.01
  324                         1.38      1.38      1.44      0.01         0.01
  523                         0.74      0.74      0.95      0.01         0.01
  506                         0.27      0.27      4.38      0.01         0.01
  312                         1.62      1.62      1.64      0.01         0.02
  258                         0.58      0.58      0.74      0.01         0.01
  518                         1.05      1.05      1.33      0.01         0.01
  399                         1.05      1.05      1.32      0.01         0.01
  36                          1.97      2.00      1.97      1.44         1.33
  335                         1.50      1.64      1.52      1.48         1.25
  74                          2.02      2.02      2.04      0.07         0.22
  222                         1.74      1.74      1.81      0.01         0.01
  228                         0.93      0.93      1.07      0.19         0.16
  236                         1.19      1.19      1.27      0.01         0.01
  66                          1.52      1.52      1.93      0.02         0.01
  65                          1.69      1.69      1.95      0.01         0.01
  64                          1.95      1.98      2.03      0.60         0.52
  517                         0.57      0.57      0.85      0.01         0.01
  325                         1.34      1.34      1.38      0.02         0.01
  313                         1.60      1.60      1.62      0.01         0.02
  259                         0.57      0.57      0.78      0.01         0.01
  516                         1.14      1.14      1.40      0.01         0.01
  397                         1.14      1.14      1.42      0.01         0.01
  34                          2.00      2.00      2.00      0.88         0.85
  334                         1.50      1.50      1.64      0.07         0.08
  73                          2.01      2.01      2.02      0.01         0.11
  225                         1.67      1.67      1.74      0.01         0.01
  480                         0.89      0.89      0.93      0.06         0.05
  389                         1.23      1.23      1.42      0.01         0.01
  234                         1.22      1.22      1.52      0.01         0.01
  386                         1.75      1.75      1.92      0.01         0.01
  1                           1.77      1.77      1.84      0.01         0.02
  387                         1.58      1.58      1.69      0.01         0.01
  515                         0.58      0.58      0.88      0.01         0.01
  502                         0.58      0.58      0.85      0.01         0.01
  326                         1.31      1.31      1.34      0.01         0.01
  311                         1.58      1.58      1.60      0.01         0.02
  260                         0.59      0.59      0.78      0.01         0.01
  514                         1.18      1.18      1.46      0.01         0.01
  395                         1.18      1.18      1.48      0.01         0.01
  33                          1.95      1.95      2.00      0.07         0.08
  333                         1.45      1.45      1.51      0.05         0.06
  72                          1.99      1.99      2.01      0.01         0.10
  478                         0.01      0.01      0.20      0.01         0.01
  392                         0.01      0.01      0.22      0.01         0.01
  226                         1.61      1.61      1.67      0.01         0.01
  513                         0.59      0.59      0.91      0.01         0.01
  327                         1.28      1.28      1.31      0.01         0.01
  507                         0.33      0.33      4.39      0.01         0.01
  310                         1.56      1.56      1.58      0.01         0.02
  261                         0.59      0.59      0.80      0.01         0.01
  512                         1.20      1.20      1.51      0.01         0.01
  393                         1.20      1.20      1.52      0.01         0.01
  32                          1.83      1.83      1.95      0.01         0.01
  332                         1.39      1.39      1.45      0.31         0.31
  71                          1.98      1.98      1.99      0.01         0.05
  227                         1.40      1.40      1.61      0.01         0.01
  511                         0.60      0.60      0.94      0.01         0.01
  501                         0.60      0.60      0.86      0.01         0.01
  329                         1.24      1.24      1.28      0.01         0.01
  309                         1.54      1.54      1.56      0.21         0.12
  262                         0.61      0.61      0.80      0.01         0.01
  510                         1.20      1.20      1.52      0.01         0.01
  31                          1.79      1.79      1.83      0.01         0.01
  331                         1.29      1.29      1.39      0.04         0.06
  479                         0.01      0.01      4.41      0.01         0.01
  70                          1.96      1.96      1.98      0.01         0.05
  390                         0.17      0.33      4.22      0.17         0.01
  273                         0.01      0.01      1.18      0.01         0.01
  509                         0.61      0.61      0.95      0.01         0.01
  500                         0.61      0.61      0.87      0.01         0.01
  299                         1.21      1.21      1.24      0.01         0.01
  508                         0.34      0.34      4.40      0.01         0.01
  308                         1.52      1.52      1.54      0.16         0.10
  263                         0.64      0.64      0.82      0.01         0.01
  391                         1.17      1.17      1.53      0.01         0.01
  30                          1.73      1.73      1.79      0.01         0.01
  330                         1.23      1.23      1.29      0.01         0.02
  29                          1.90      1.90      1.96      0.03         0.03
  495                         0.62      0.62      0.97      0.01         0.01
  486                         0.63      0.63      0.87      0.01         0.01
  298                         1.21      1.39      1.21      0.76         0.53
  307                         1.51      1.51      1.52      0.10         0.06
  264                         0.70      0.79      0.85      0.17         0.02
  300                         1.42      1.42      1.73      0.01         0.01
  496                         1.20      1.20      1.23      0.01         0.01
  372                         0.97      1.12      0.97      0.40         0.21
  303                         1.86      1.86      1.90      0.01         0.02
  497                         0.78      0.78      1.18      0.01         0.01
  487                         0.80      0.80      1.06      0.01         0.01
  297                         1.34      1.38      1.39      0.63         0.54
  282                         1.48      1.48      1.51      0.01         0.01
  265                         0.72      0.96      0.83      0.81         0.54
  301                         1.34      1.34      1.42      0.04         0.04
  302                         1.15      1.28      1.20      1.00         0.79
  304                         1.81      1.81      1.86      0.01         0.01
  272                         0.79      0.79      1.38      0.01         0.01
  498                         0.96      0.96      1.33      0.01         0.01
  488                         0.96      0.96      1.20      0.01         0.01
  283                         1.45      1.45      1.48      0.01         0.01
  281                         1.43      1.43      1.48      0.11         0.08
  499                         1.20      1.20      1.34      0.01         0.01
  296                         1.15      1.26      1.24      0.18         0.03
  305                         1.77      1.77      1.81      0.01         0.01
  113                         1.40      1.40      1.43      0.02         0.01
  285                         1.42      1.42      1.45      0.01         0.01
  293                         1.76      1.76      1.77      0.48         0.36
  294                         1.18      1.18      1.25      0.07         0.01
  494                         0.96      0.96      1.24      0.01         0.01
  489                         0.97      0.97      1.22      0.01         0.01
  101                         1.37      1.37      1.40      0.05         0.01
  286                         1.34      1.34      1.42      0.01         0.01
  280                         1.01      1.01      1.09      0.09         0.06
  493                         0.95      0.95      1.10      0.01         0.01
  287                         1.03      1.03      1.18      0.01         0.01
  288                         1.16      1.36      1.30      0.28         0.06
  292                         1.73      1.74      1.76      0.08         0.03
  90                          1.33      1.36      1.37      0.07         0.01
  485                         0.70      0.70      0.98      0.01         0.01
  484                         0.70      0.70      0.98      0.01         0.01
  124                         0.71      0.78      0.88      0.16         0.01
  490                         0.49      0.49      0.94      0.01         0.01
  278                         1.26      1.26      1.34      0.01         0.01
  491                         0.93      0.93      1.03      0.01         0.01
  290                         1.70      1.70      1.74      0.01         0.01
  271                         1.01      1.01      1.24      0.01         0.01
  289                         1.54      1.66      1.55      0.27         0.08
  492                         1.19      1.19      1.37      0.01         0.01
  440                         0.93      0.93      1.00      0.01         0.01
  79                          1.25      1.25      1.36      0.01         0.01
  268                         1.23      1.23      1.26      0.01         0.02
  135                         0.86      0.86      1.04      0.01         0.01
  224                         1.63      1.68      1.66      0.30         0.21
  317                         1.32      1.32      1.41      0.01         0.01
  291                         1.65      1.65      1.70      0.01         0.01
  68                          1.21      1.21      1.25      0.01         0.01
  410                         0.70      0.70      0.86      0.01         0.01
  257                         1.21      1.37      1.23      0.60         0.38
  146                         0.75      0.75      0.93      0.01         0.01
  482                         1.16      1.16      1.24      0.01         0.01
  212                         1.68      1.71      1.68      0.65         0.55
  190                         1.35      1.35      1.52      0.14         0.11
  328                         1.61      1.61      1.65      0.01         0.01
  519                         0.96      0.96      4.46      0.01         0.01
  477                         1.01      1.01      1.08      0.01         0.01
  306                         1.24      1.24      1.32      0.01         0.01
  447                         0.95      0.95      1.03      0.01         0.01
  57                          1.18      1.18      1.21      0.04         0.02
  246                         1.35      1.35      1.37      0.32         0.31
  157                         0.96      0.96      1.20      0.01         0.01
  24                          1.26      1.35      1.35      0.37         0.24
  201                         1.60      1.60      1.71      0.31         0.33
  339                         1.58      1.58      1.61      0.01         0.01
  295                         1.20      1.20      1.24      0.05         0.01
  2                           1.06      1.06      1.14      0.06         0.01
  46                          1.12      1.12      1.18      0.16         0.17
  383                         0.81      0.81      0.96      0.01         0.01
  235                         1.33      1.39      1.35      0.98         0.82
  168                         1.00      1.00      1.17      0.16         0.15
  13                          1.54      1.54      1.60      0.21         0.22
  112                         1.53      1.64      1.58      0.30         0.16
  266                         1.04      1.04      1.14      0.01         0.01
  284                         1.18      1.18      1.20      0.06         0.01
  454                         0.98      0.98      1.05      0.01         0.01
  35                          1.04      1.04      1.12      0.10         0.05
  179                         1.30      1.30      1.39      0.20         0.21
  367                         1.49      1.49      1.54      0.01         0.01
  350                         1.49      1.49      1.54      0.01         0.01
  483                         1.10      1.10      1.17      0.01         0.02
  233                         1.33      1.33      1.64      0.04         0.06
  232                         1.12      1.12      1.22      0.04         0.01
  267                         1.04      1.13      1.15      0.15         0.02
  223                         1.15      1.36      1.18      0.40         0.13
  369                         0.99      0.99      1.04      0.02         0.03
  373                         1.27      1.27      1.30      0.06         0.06
  270                         1.16      1.16      1.33      0.01         0.01
  269                         1.23      1.23      1.36      0.20         0.21
  

  Analysis begun on:  Wed Dec 22 20:06:35 2021
  Analysis ended on:  Wed Dec 22 20:06:36 2021
  Total elapsed time: 00:00:01